! B3LYP def2-SVP Opt PAL8 FREQ 
#defgrid3 slowconv VeryTightSCF
*xyz 0 1
  C   -7.188239    3.332064   -0.274933
  C   -5.977912    3.923851   -0.249593
  C   -4.843943    3.220205   -0.172070
  C   -4.889457    1.882792   -0.117152
  C   -3.744739    1.191413   -0.040072
  C   -3.765750   -0.144845    0.015405
  C   -4.916422   -0.847138   -0.003152
  C   -4.942157   -2.207610    0.052846
  C   -6.151829   -2.800466    0.028471
  C   -7.285953   -2.096887   -0.047219
  C   -7.240618   -0.759403   -0.101967
  C   -8.385317   -0.068007   -0.178212
  C   -8.364324    1.268238   -0.234411
  C   -7.214019    1.971389   -0.217338
  C   -6.071415    1.240058   -0.138857
  C   -6.059061   -0.115968   -0.080845
  C   -8.293539    4.112529   -0.355262
  C   -3.836584   -2.987050    0.129021
  C   -8.383968    5.454669   -0.417755
  C   -3.740123   -4.329079    0.190773
  C   -9.556151    6.048954   -0.493000
  O   -2.517579   -4.939945    0.281546
  C   -2.484651   -6.077900    1.113688
  N  -10.586822    6.573043   -0.559209
  H   -5.837612    5.014171   -0.290418
  H   -3.881494    3.760979   -0.154979
  H   -2.769212    1.708751   -0.021047
  H   -2.767224   -0.599650    0.076738
  H   -6.290672   -3.891074    0.067398
  H   -8.248298   -2.637808   -0.064137
  H   -9.360801   -0.585489   -0.196174
  H   -9.363461    1.721796   -0.294690
  H   -9.289930    3.646530   -0.376873
  H   -2.836943   -2.529569    0.144708
  H   -7.516419    6.128907   -0.410868
  H   -4.609824   -5.001881    0.206088
  H   -1.435961   -6.448913    1.151691
  H   -2.811899   -5.804769    2.142163
  H   -3.134107   -6.879472    0.695687
*