39
Coordinates from ORCA-job NC_OMe_2 E -976.034723782062
  C      -7.217413      3.478866     -0.268637
  C      -5.951446      4.103154     -0.226802
  C      -4.776323      3.377690     -0.151212
  C      -4.799086      1.968572     -0.114946
  C      -3.596265      1.197053     -0.029071
  C      -3.626430     -0.168070      0.004087
  C      -4.862545     -0.898294     -0.053870
  C      -4.907145     -2.327436     -0.029002
  C      -6.170124     -2.955485     -0.074641
  C      -7.351812     -2.230600     -0.124685
  C      -7.338473     -0.823808     -0.154287
  C      -8.540914     -0.050883     -0.225954
  C      -8.515333      1.313914     -0.263932
  C      -7.278568      2.048265     -0.230912
  C      -6.056944      1.291036     -0.157170
  C      -6.082847     -0.144141     -0.123437
  C      -8.433983      4.282406     -0.349699
  C      -3.678602     -3.123684      0.029252
  C      -8.521629      5.635728     -0.414756
  C      -3.588494     -4.380264      0.511268
  C      -9.773826      6.312825     -0.493266
  O      -2.428344     -5.066513      0.481656
  C      -2.409668     -6.316367      1.144059
  N     -10.786674      6.881919     -0.558944
  H      -5.890018      5.192708     -0.251746
  H      -3.814269      3.895854     -0.117921
  H      -2.640511      1.726370      0.015428
  H      -2.686419     -0.713893      0.086190
  H      -6.220403     -4.046156     -0.104461
  H      -8.310985     -2.754515     -0.164817
  H      -9.498454     -0.578732     -0.251412
  H      -9.463969      1.846744     -0.319855
  H      -9.383411      3.745211     -0.361524
  H      -2.747526     -2.685937     -0.338160
  H      -7.637151      6.278923     -0.413083
  H      -4.444560     -4.904729      0.956018
  H      -1.416711     -6.755071      0.977106
  H      -2.571838     -6.202641      2.231445
  H      -3.175316     -7.002600      0.737684
39
Coordinates from ORCA-job NC_OMe_2 E -976.034726314923
  C      -7.216842      3.478899     -0.272013
  C      -5.951060      4.103682     -0.230140
  C      -4.775716      3.378474     -0.154161
  C      -4.798223      1.969240     -0.117351
  C      -3.595319      1.197891     -0.029938
  C      -3.625354     -0.167321      0.003984
  C      -4.861379     -0.897770     -0.054259
  C      -4.906202     -2.326947     -0.028176
  C      -6.169190     -2.955012     -0.073977
  C      -7.350786     -2.230239     -0.125945
  C      -7.337288     -0.823470     -0.157092
  C      -8.539739     -0.050760     -0.230895
  C      -8.514196      1.314032     -0.269496
  C      -7.277575      2.048406     -0.235366
  C      -6.055907      1.291418     -0.160405
  C      -6.081683     -0.143718     -0.125624
  C      -8.434115      4.281559     -0.349576
  C      -3.678330     -3.123972      0.030285
  C      -8.523308      5.634946     -0.411436
  C      -3.589642     -4.380538      0.512603
  C      -9.776333      6.311112     -0.483112
  O      -2.431011     -5.069144      0.480825
  C      -2.411858     -6.316906      1.147004
  N     -10.789811      6.879708     -0.543169
  H      -5.890053      5.193255     -0.254397
  H      -3.813824      3.896893     -0.120114
  H      -2.639705      1.727427      0.015201
  H      -2.685344     -0.713095      0.086818
  H      -6.219284     -4.045690     -0.102902
  H      -8.309930     -2.754163     -0.166427
  H      -9.497169     -0.578768     -0.256990
  H      -9.462783      1.846961     -0.326455
  H      -9.383026      3.743327     -0.359501
  H      -2.747081     -2.687678     -0.338322
  H      -7.639507      6.279078     -0.410352
  H      -4.445933     -4.903362      0.958829
  H      -1.420351     -6.757874      0.977281
  H      -2.569184     -6.199406      2.234734
  H      -3.180387     -7.003058      0.746019
