! B3LYP def2-SVP Opt PAL8 FREQ defgrid3 slowconv VeryTightSCF
*xyz 0 1
  C      -7.217413      3.478866     -0.268637
  C      -5.951446      4.103154     -0.226802
  C      -4.776323      3.377690     -0.151212
  C      -4.799086      1.968572     -0.114946
  C      -3.596265      1.197053     -0.029071
  C      -3.626430     -0.168070      0.004087
  C      -4.862545     -0.898294     -0.053870
  C      -4.907145     -2.327436     -0.029002
  C      -6.170124     -2.955485     -0.074641
  C      -7.351812     -2.230600     -0.124685
  C      -7.338473     -0.823808     -0.154287
  C      -8.540914     -0.050883     -0.225954
  C      -8.515333      1.313914     -0.263932
  C      -7.278568      2.048265     -0.230912
  C      -6.056944      1.291036     -0.157170
  C      -6.082847     -0.144141     -0.123437
  C      -8.433983      4.282406     -0.349699
  C      -3.678602     -3.123684      0.029252
  C      -8.521629      5.635728     -0.414756
  C      -3.588494     -4.380264      0.511268
  C      -9.773826      6.312825     -0.493266
  O      -2.428344     -5.066513      0.481656
  C      -2.409668     -6.316367      1.144059
  N     -10.786674      6.881919     -0.558944
  H      -5.890018      5.192708     -0.251746
  H      -3.814269      3.895854     -0.117921
  H      -2.640511      1.726370      0.015428
  H      -2.686419     -0.713893      0.086190
  H      -6.220403     -4.046156     -0.104461
  H      -8.310985     -2.754515     -0.164817
  H      -9.498454     -0.578732     -0.251412
  H      -9.463969      1.846744     -0.319855
  H      -9.383411      3.745211     -0.361524
  H      -2.747526     -2.685937     -0.338160
  H      -7.637151      6.278923     -0.413083
  H      -4.444560     -4.904729      0.956018
  H      -1.416711     -6.755071      0.977106
  H      -2.571838     -6.202641      2.231445
  H      -3.175316     -7.002600      0.737684
*
