! B3LYP def2-SVP Opt PAL8 FREQ defgrid3 slowconv VeryTightSCF
*xyz 0 1
 C        -7.218676        3.479653       -0.232700
 C        -5.952967        4.104784       -0.196300
 C        -4.776393        3.379080       -0.141538
 C        -4.798248        1.969621       -0.114728
 C        -3.594932        1.198039       -0.034215
 C        -3.624868       -0.167198       -0.001982
 C        -4.861020       -0.897695       -0.057955
 C        -4.905811       -2.326876       -0.032756
 C        -6.168761       -2.954982       -0.079734
 C        -7.350347       -2.230292       -0.132815
 C        -7.337027       -0.823442       -0.160924
 C        -8.539310       -0.050962       -0.240555
 C        -8.514066        1.314043       -0.272320
 C        -7.278311        2.048773       -0.215745
 C        -6.056073        1.291685       -0.153130
 C        -6.081510       -0.143622       -0.125845
 C        -8.438194        4.283572       -0.264286
 C        -3.678058       -3.124029        0.026516
 C        -8.518562        5.627093       -0.552765
 C        -3.589837       -4.380282        0.509729
 C        -9.774263        6.309321       -0.521515
 O        -2.431290       -5.069104        0.479087
 C        -2.412569       -6.316188        1.146544
 N       -10.789664        6.882456       -0.505818
 H        -5.894751        5.195501       -0.178288
 H        -3.814880        3.897777       -0.100976
 H        -2.639132        1.727473        0.008178
 H        -2.684520       -0.713012        0.076662
 H        -6.218694       -4.045640       -0.109770
 H        -8.309304       -2.754302       -0.176589
 H        -9.496057       -0.579482       -0.281414
 H        -9.461440        1.846840       -0.351437
 H        -9.395898        3.755876       -0.020511
 H        -2.746483       -2.688042       -0.341622
 H        -7.624008        6.257036       -0.841456
 H        -4.446474       -4.902633        0.955851
 H        -1.421104       -6.757529        0.977542
 H        -2.570168       -6.197550        2.234112
 H        -3.181127       -7.002598        0.746054
*
