39
Coordinates from ORCA-job NC_OMe_3 E -976.032856578887
  C      -7.218676      3.479653     -0.232700
  C      -5.952967      4.104784     -0.196300
  C      -4.776393      3.379080     -0.141538
  C      -4.798248      1.969621     -0.114728
  C      -3.594932      1.198039     -0.034215
  C      -3.624868     -0.167198     -0.001982
  C      -4.861020     -0.897695     -0.057955
  C      -4.905811     -2.326876     -0.032756
  C      -6.168761     -2.954982     -0.079734
  C      -7.350347     -2.230292     -0.132815
  C      -7.337027     -0.823442     -0.160924
  C      -8.539310     -0.050962     -0.240555
  C      -8.514066      1.314043     -0.272320
  C      -7.278311      2.048773     -0.215745
  C      -6.056073      1.291685     -0.153130
  C      -6.081510     -0.143622     -0.125845
  C      -8.438194      4.283572     -0.264286
  C      -3.678058     -3.124029      0.026516
  C      -8.518562      5.627093     -0.552765
  C      -3.589837     -4.380282      0.509729
  C      -9.774263      6.309321     -0.521515
  O      -2.431290     -5.069104      0.479087
  C      -2.412569     -6.316188      1.146544
  N     -10.789664      6.882456     -0.505818
  H      -5.894751      5.195501     -0.178288
  H      -3.814880      3.897777     -0.100976
  H      -2.639132      1.727473      0.008178
  H      -2.684520     -0.713012      0.076662
  H      -6.218694     -4.045640     -0.109770
  H      -8.309304     -2.754302     -0.176589
  H      -9.496057     -0.579482     -0.281414
  H      -9.461440      1.846840     -0.351437
  H      -9.395898      3.755876     -0.020511
  H      -2.746483     -2.688042     -0.341622
  H      -7.624008      6.257036     -0.841456
  H      -4.446474     -4.902633      0.955851
  H      -1.421104     -6.757529      0.977542
  H      -2.570168     -6.197550      2.234112
  H      -3.181127     -7.002598      0.746054
39
Coordinates from ORCA-job NC_OMe_3 E -976.034722491898
  C      -7.216907      3.481427     -0.228591
  C      -5.951499      4.106922     -0.192756
  C      -4.774965      3.380855     -0.135223
  C      -4.797171      1.971466     -0.106876
  C      -3.594135      1.199175     -0.027368
  C      -3.624784     -0.166106      0.003286
  C      -4.861369     -0.896016     -0.053175
  C      -4.906863     -2.325114     -0.031046
  C      -6.170248     -2.952611     -0.078410
  C      -7.351560     -2.227370     -0.129362
  C      -7.337555     -0.820391     -0.155019
  C      -8.539487     -0.047123     -0.233607
  C      -8.513190      1.318042     -0.264396
  C      -7.276883      2.051042     -0.207962
  C      -6.055263      1.293781     -0.144869
  C      -6.081537     -0.141383     -0.119075
  C      -8.435105      4.285821     -0.267561
  C      -3.679450     -3.122993      0.024831
  C      -8.522252      5.611137     -0.562534
  C      -3.591306     -4.380446      0.504971
  C      -9.771973      6.298312     -0.537783
  O      -2.433407     -5.070094      0.470518
  C      -2.412964     -6.316900      1.138368
  N     -10.783005      6.874706     -0.527156
  H      -5.894276      5.197072     -0.180717
  H      -3.813294      3.899356     -0.096692
  H      -2.638042      1.728097      0.014650
  H      -2.684683     -0.712598      0.080405
  H      -6.220555     -4.043166     -0.110790
  H      -8.310755     -2.750872     -0.173841
  H      -9.496455     -0.574983     -0.275244
  H      -9.459621      1.852709     -0.343340
  H      -9.370503      3.777895     -0.029652
  H      -2.748111     -2.686651     -0.343567
  H      -7.655958      6.212935     -0.844755
  H      -4.447471     -4.903145      0.951603
  H      -1.422504     -6.759030      0.965561
  H      -2.566056     -6.197691      2.226514
  H      -3.183636     -7.002903      0.741246
39
Coordinates from ORCA-job NC_OMe_3 E -976.034766742428
  C      -7.216398      3.480660     -0.227648
  C      -5.951719      4.107116     -0.190907
  C      -4.774804      3.381245     -0.131826
  C      -4.796781      1.971905     -0.103757
  C      -3.593811      1.199298     -0.024296
  C      -3.624714     -0.166000      0.004988
  C      -4.861438     -0.895833     -0.052222
  C      -4.907215     -2.324859     -0.031508
  C      -6.170831     -2.952058     -0.078521
  C      -7.352101     -2.226623     -0.127833
  C      -7.337900     -0.819594     -0.152548
  C      -8.539925     -0.046014     -0.229090
  C      -8.513170      1.319189     -0.259571
  C      -7.276170      2.050992     -0.205736
  C      -6.054785      1.293973     -0.142453
  C      -6.081511     -0.141051     -0.117139
  C      -8.435406      4.284230     -0.270310
  C      -3.679937     -3.123090      0.022763
  C      -8.524473      5.606439     -0.564787
  C      -3.591693     -4.380928      0.501869
  C      -9.771912      6.298217     -0.547106
  O      -2.434223     -5.071187      0.465078
  C      -2.412095     -6.316623      1.135355
  N     -10.780770      6.877830     -0.542020
  H      -5.895750      5.197518     -0.180660
  H      -3.813253      3.899953     -0.092697
  H      -2.637653      1.728039      0.018606
  H      -2.684747     -0.712755      0.081911
  H      -6.221271     -4.042584     -0.111711
  H      -8.311416     -2.749949     -0.171731
  H      -9.497091     -0.573649     -0.268925
  H      -9.459132      1.855355     -0.335484
  H      -9.372581      3.776167     -0.036422
  H      -2.748841     -2.686758     -0.346267
  H      -7.653490      6.205995     -0.842131
  H      -4.447497     -4.903609      0.949241
  H      -1.422609     -6.759801      0.959650
  H      -2.560911     -6.195098      2.223840
  H      -3.184773     -7.002895      0.742592
39
Coordinates from ORCA-job NC_OMe_3 E -976.034782246404
  C      -7.217070      3.479473     -0.226536
  C      -5.952932      4.106533     -0.188924
  C      -4.775838      3.380729     -0.128406
  C      -4.797679      1.971561     -0.100653
  C      -3.594663      1.198797     -0.021258
  C      -3.625550     -0.166461      0.006703
  C      -4.862206     -0.896442     -0.051331
  C      -4.907819     -2.325390     -0.032278
  C      -6.171434     -2.952615     -0.079300
  C      -7.352818     -2.227259     -0.127083
  C      -7.338808     -0.820182     -0.150528
  C      -8.541084     -0.046740     -0.225261
  C      -8.514437      1.318454     -0.255371
  C      -7.276989      2.049979     -0.203060
  C      -6.055544      1.293257     -0.139922
  C      -6.082345     -0.141740     -0.115301
  C      -8.436217      4.283705     -0.272618
  C      -3.680403     -3.123577      0.020185
  C      -8.525870      5.604801     -0.566629
  C      -3.591547     -4.381779      0.498192
  C      -9.768979      6.304324     -0.555887
  O      -2.434370     -5.072395      0.458521
  C      -2.409157     -6.315176      1.133525
  N     -10.774221      6.890017     -0.556212
  H      -5.897957      5.196997     -0.179952
  H      -3.814376      3.899539     -0.088363
  H      -2.638529      1.727513      0.022583
  H      -2.685623     -0.713350      0.083362
  H      -6.221668     -4.043114     -0.113754
  H      -8.312102     -2.750658     -0.170794
  H      -9.498182     -0.574604     -0.263671
  H      -9.459914      1.855451     -0.328706
  H      -9.375312      3.776718     -0.041540
  H      -2.749772     -2.686916     -0.349676
  H      -7.649526      6.199944     -0.840115
  H      -4.446721     -4.904739      0.946490
  H      -1.421090     -6.759841      0.953606
  H      -2.551307     -6.189271      2.222403
  H      -3.184738     -7.002381      0.748144
39
Coordinates from ORCA-job NC_OMe_3 E -976.034783972162
  C      -7.217432      3.479025     -0.226127
  C      -5.953332      4.106145     -0.188106
  C      -4.776258      3.380309     -0.127551
  C      -4.798140      1.971196     -0.100192
  C      -3.595111      1.198384     -0.020896
  C      -3.625971     -0.166858      0.006611
  C      -4.862590     -0.896881     -0.051784
  C      -4.908130     -2.325825     -0.033299
  C      -6.171722     -2.953074     -0.080417
  C      -7.353125     -2.227725     -0.127816
  C      -7.339170     -0.820633     -0.150814
  C      -8.541504     -0.047246     -0.225089
  C      -8.514967      1.317924     -0.254944
  C      -7.277479      2.049502     -0.202854
  C      -6.055979      1.292836     -0.139726
  C      -6.082746     -0.142190     -0.115478
  C      -8.436482      4.283400     -0.272420
  C      -3.680677     -3.123988      0.018808
  C      -8.526153      5.604923     -0.566215
  C      -3.591682     -4.382202      0.496734
  C      -9.767435      6.307068     -0.556729
  O      -2.434726     -5.073135      0.455979
  C      -2.407860     -6.313818      1.134752
  N     -10.771275      6.895258     -0.558035
  H      -5.898485      5.196566     -0.178758
  H      -3.814797      3.899089     -0.087047
  H      -2.638994      1.727106      0.023280
  H      -2.686071     -0.713803      0.083210
  H      -6.221868     -4.043567     -0.115287
  H      -8.312398     -2.751144     -0.171578
  H      -9.498538     -0.575246     -0.263273
  H      -9.460364      1.855166     -0.327691
  H      -9.375910      3.776476     -0.042245
  H      -2.750205     -2.687332     -0.351468
  H      -7.648498      6.198439     -0.839112
  H      -4.446680     -4.905117      0.945455
  H      -1.420831     -6.759819      0.952448
  H      -2.545763     -6.184416      2.223764
  H      -3.185446     -7.001627      0.754498
39
Coordinates from ORCA-job NC_OMe_3 E -976.034784590774
  C      -7.217767      3.478714     -0.225684
  C      -5.953572      4.105736     -0.187338
  C      -4.776578      3.379821     -0.127034
  C      -4.798561      1.970715     -0.100186
  C      -3.595540      1.197857     -0.021101
  C      -3.626393     -0.167382      0.006000
  C      -4.863009     -0.897378     -0.052673
  C      -4.908530     -2.326326     -0.034656
  C      -6.172103     -2.953581     -0.082046
  C      -7.353497     -2.228199     -0.129266
  C      -7.339533     -0.821098     -0.151807
  C      -8.541863     -0.047713     -0.225957
  C      -8.515391      1.317438     -0.255399
  C      -7.277954      2.049111     -0.202859
  C      -6.056413      1.292411     -0.139978
  C      -6.083151     -0.142653     -0.116188
  C      -8.436635      4.283123     -0.271738
  C      -3.681068     -3.124495      0.017284
  C      -8.525984      5.605150     -0.565124
  C      -3.592045     -4.382660      0.495315
  C      -9.765943      6.308958     -0.555564
  O      -2.435396     -5.074051      0.453540
  C      -2.406633     -6.311958      1.137288
  N     -10.768675      6.899138     -0.556821
  H      -5.898639      5.196121     -0.177389
  H      -3.815086      3.898522     -0.086263
  H      -2.639429      1.726573      0.023279
  H      -2.686529     -0.714410      0.082485
  H      -6.222190     -4.044063     -0.117333
  H      -8.312768     -2.751602     -0.173272
  H      -9.498839     -0.575804     -0.264398
  H      -9.460719      1.854806     -0.328130
  H      -9.376083      3.776254     -0.041743
  H      -2.750709     -2.687923     -0.353391
  H      -7.647627      6.197613     -0.837877
  H      -4.446929     -4.905398      0.944498
  H      -1.421028     -6.759887      0.952023
  H      -2.539108     -6.177904      2.226405
  H      -3.186878     -7.000414      0.763683
39
Coordinates from ORCA-job NC_OMe_3 E -976.034785035054
  C      -7.217862      3.478522     -0.225130
  C      -5.953524      4.105353     -0.186443
  C      -4.776630      3.379314     -0.126566
  C      -4.798749      1.970181     -0.100376
  C      -3.595775      1.197233     -0.021571
  C      -3.626695     -0.168014      0.005042
  C      -4.863361     -0.897890     -0.053964
  C      -4.908973     -2.326845     -0.036444
  C      -6.172563     -2.954029     -0.084167
  C      -7.353907     -2.228541     -0.131242
  C      -7.339835     -0.821438     -0.153281
  C      -8.542107     -0.047952     -0.227326
  C      -8.515579      1.317192     -0.256212
  C      -7.278166      2.048856     -0.203126
  C      -6.056651      1.292032     -0.140483
  C      -6.083442     -0.143058     -0.117284
  C      -8.436633      4.282896     -0.270551
  C      -3.681567     -3.125117      0.015453
  C      -8.525744      5.605230     -0.563504
  C      -3.592689     -4.383196      0.493721
  C      -9.765049      6.309780     -0.553518
  O      -2.436496     -5.075292      0.450850
  C      -2.405602     -6.309750      1.140722
  N     -10.767023      6.901304     -0.554452
  H      -5.898405      5.195710     -0.175720
  H      -3.815090      3.897904     -0.085536
  H      -2.639647      1.725900      0.023017
  H      -2.686897     -0.715179      0.081376
  H      -6.222657     -4.044496     -0.119876
  H      -8.313210     -2.751862     -0.175548
  H      -9.499073     -0.576034     -0.266173
  H      -9.460834      1.854696     -0.329006
  H      -9.375980      3.775917     -0.040544
  H      -2.751264     -2.688762     -0.355630
  H      -7.647148      6.197169     -0.836439
  H      -4.447531     -4.905582      0.943436
  H      -1.421903     -6.760316      0.951749
  H      -2.531252     -6.169903      2.229915
  H      -3.189286     -6.998769      0.775416
