37
Energy =
C    -7.2463894    3.0154326   -0.2268007 
C    -5.9936408    3.6664383   -0.2185892 
C    -4.8033471    2.9656212   -0.1352570 
C    -4.7992438    1.5579614   -0.0535064 
C    -3.5826434    0.8113298    0.0534099 
C    -3.5892046   -0.5526851    0.1330293 
C    -4.8097274   -1.3094151    0.1037281 
C    -4.8253881   -2.7401051    0.1737228 
C    -6.0818769   -3.3874464    0.1588523 
C    -7.2749313   -2.6853525    0.0921887 
C    -7.2882699   -1.2796365    0.0140146 
C    -8.5039857   -0.5325881   -0.0847283 
C    -8.5037784    0.8311567   -0.1681466 
C    -7.2802770    1.5862710   -0.1491063 
C    -6.0441465    0.8547135   -0.0622995 
C    -6.0437703   -0.5791233    0.0169481 
C    -8.4795787    3.7947360   -0.2968093 
C    -3.5876854   -3.5144077    0.2454782 
C    -8.5956067    5.1041501   -0.6355728 
C    -3.4842515   -4.7841931    0.7161722 
C    -9.8490254    5.7833655   -0.6434852 
N    -2.3557867   -5.5641554    0.6942292 
N   -10.8624639    6.3552054   -0.6496518 
H    -5.9589965    4.7573025   -0.2510697 
H    -3.8513948    3.5029851   -0.1183511 
H    -2.6363861    1.3588803    0.0775223 
H    -2.6382604   -1.0764473    0.2319582 
H    -6.1168641   -4.4790167    0.1651740 
H    -8.2248136   -3.2274310    0.0747080 
H    -9.4511538   -1.0794910   -0.0981660 
H    -9.4591575    1.3476315   -0.2585826 
H    -9.4078948    3.2777209   -0.0452140 
H    -2.6690327   -3.0392420   -0.1106993 
H    -7.7299340    5.7030367   -0.9330642 
H    -4.3584475   -5.2901904    1.1392206 
H    -2.2868519   -6.3287454    1.3539888 
H    -1.4716484   -5.1293895    0.4539435 
