37
Coordinates from ORCA-job NO2_OH_2 E -1048.925655675498
  C      -7.110798      2.747902     -0.244903
  C      -5.850411      3.386136     -0.244055
  C      -4.669692      2.673761     -0.143089
  C      -4.683063      1.267357     -0.036217
  C      -3.474414      0.508988      0.068561
  C      -3.493750     -0.853058      0.170878
  C      -4.722745     -1.597925      0.179102
  C      -4.758827     -3.025741      0.284992
  C      -6.023057     -3.656700      0.284121
  C      -7.205804     -2.943329      0.185899
  C      -7.200858     -1.539300      0.079980
  C      -8.408890     -0.780962     -0.023845
  C      -8.394335      0.581110     -0.127443
  C      -7.162163      1.320392     -0.136487
  C      -5.934562      0.577342     -0.032134
  C      -5.949036     -0.854306      0.075923
  C      -8.332320      3.532005     -0.355410
  C      -3.526515     -3.806962      0.390256
  C      -8.437774      4.870165     -0.473117
  C      -3.427698     -5.147000      0.500748
  O      -2.220430     -5.753147      0.588962
  N      -9.745311      5.496255     -0.573842
  O      -9.743636      6.717777     -0.679641
  O     -10.752415      4.799062     -0.549419
  H      -5.801857      4.473752     -0.324826
  H      -3.710825      3.198599     -0.145665
  H      -2.521395      1.044833      0.065122
  H      -2.543560     -1.380315      0.248395
  H      -6.082214     -4.744086      0.362422
  H      -8.162647     -3.472835      0.189535
  H      -9.362196     -1.316904     -0.019269
  H      -9.344753      1.108029     -0.204601
  H      -9.292759      3.014298     -0.346810
  H      -2.571249     -3.280360      0.381038
  H      -7.638684      5.607435     -0.508201
  H      -4.299567     -5.810435      0.525132
  H      -2.334644     -6.707914      0.665653
37
Coordinates from ORCA-job NO2_OH_2 E -1048.925656749707
  C      -7.109645      2.748198     -0.247239
  C      -5.849183      3.386430     -0.246301
  C      -4.668510      2.673865     -0.145513
  C      -4.682045      1.267309     -0.038872
  C      -3.473560      0.508534      0.066608
  C      -3.493394     -0.853523      0.169551
  C      -4.722628     -1.597969      0.177730
  C      -4.759138     -3.025665      0.284661
  C      -6.023474     -3.656513      0.283852
  C      -7.206078     -2.943047      0.184327
  C      -7.200850     -1.538995      0.077494
  C      -8.408708     -0.780290     -0.027205
  C      -8.393673      0.581794     -0.131108
  C      -7.161242      1.320646     -0.139879
  C      -5.933742      0.577422     -0.035188
  C      -5.948784     -0.854200      0.073501
  C      -8.331577      3.531816     -0.355509
  C      -3.526935     -3.806770      0.391246
  C      -8.438507      4.870197     -0.469976
  C      -3.428441     -5.146644      0.504458
  O      -2.221363     -5.752941      0.594423
  N      -9.747075      5.494782     -0.568199
  O      -9.747494      6.716670     -0.670060
  O     -10.753038      4.795953     -0.545096
  H      -5.800607      4.474067     -0.326432
  H      -3.709616      3.198666     -0.147445
  H      -2.520344      1.044035      0.063527
  H      -2.543409     -1.381169      0.247581
  H      -6.082759     -4.743797      0.363113
  H      -8.162972     -3.472476      0.187723
  H      -9.362201     -1.315901     -0.022800
  H      -9.343908      1.109145     -0.208360
  H      -9.291635      3.013311     -0.346886
  H      -2.571554     -3.280282      0.381093
  H      -7.640444      5.608613     -0.503572
  H      -4.300458     -5.809801      0.529936
  H      -2.335864     -6.707548      0.672561
