! B3LYP def2-SVP Opt PAL8 FREQ defgrid3 slowconv VeryTightSCF
*xyz 0 1
  C      -7.110798      2.747902     -0.244903
  C      -5.850411      3.386136     -0.244055
  C      -4.669692      2.673761     -0.143089
  C      -4.683063      1.267357     -0.036217
  C      -3.474414      0.508988      0.068561
  C      -3.493750     -0.853058      0.170878
  C      -4.722745     -1.597925      0.179102
  C      -4.758827     -3.025741      0.284992
  C      -6.023057     -3.656700      0.284121
  C      -7.205804     -2.943329      0.185899
  C      -7.200858     -1.539300      0.079980
  C      -8.408890     -0.780962     -0.023845
  C      -8.394335      0.581110     -0.127443
  C      -7.162163      1.320392     -0.136487
  C      -5.934562      0.577342     -0.032134
  C      -5.949036     -0.854306      0.075923
  C      -8.332320      3.532005     -0.355410
  C      -3.526515     -3.806962      0.390256
  C      -8.437774      4.870165     -0.473117
  C      -3.427698     -5.147000      0.500748
  O      -2.220430     -5.753147      0.588962
  N      -9.745311      5.496255     -0.573842
  O      -9.743636      6.717777     -0.679641
  O     -10.752415      4.799062     -0.549419
  H      -5.801857      4.473752     -0.324826
  H      -3.710825      3.198599     -0.145665
  H      -2.521395      1.044833      0.065122
  H      -2.543560     -1.380315      0.248395
  H      -6.082214     -4.744086      0.362422
  H      -8.162647     -3.472835      0.189535
  H      -9.362196     -1.316904     -0.019269
  H      -9.344753      1.108029     -0.204601
  H      -9.292759      3.014298     -0.346810
  H      -2.571249     -3.280360      0.381038
  H      -7.638684      5.607435     -0.508201
  H      -4.299567     -5.810435      0.525132
  H      -2.334644     -6.707914      0.665653
*
