37
Coordinates from ORCA-job NO2_OH_3 E -1048.922778861794
  C      -7.109488      2.747932     -0.251592
  C      -5.849081      3.386249     -0.249724
  C      -4.668333      2.673554     -0.150711
  C      -4.681862      1.266993     -0.044244
  C      -3.473150      0.507769      0.055206
  C      -3.493235     -0.853724      0.165407
  C      -4.723148     -1.596862      0.192636
  C      -4.760809     -3.022430      0.328266
  C      -6.025297     -3.653055      0.328396
  C      -7.206496     -2.942172      0.194489
  C      -7.200663     -1.539221      0.073016
  C      -8.408253     -0.781066     -0.038411
  C      -8.393267      0.581087     -0.141482
  C      -7.161001      1.320226     -0.146072
  C      -5.933591      0.577185     -0.038927
  C      -5.948808     -0.854045      0.075083
  C      -8.331470      3.531619     -0.358725
  C      -3.530734     -3.799346      0.489505
  C      -8.438500      4.870168     -0.471162
  C      -3.424090     -5.157468      0.379819
  O      -2.220919     -5.752094      0.600935
  N      -9.747111      5.494801     -0.568419
  O      -9.747588      6.716759     -0.669462
  O     -10.753056      4.795939     -0.545462
  H      -5.800566      4.473983     -0.328581
  H      -3.709393      3.198267     -0.153764
  H      -2.519411      1.042263      0.038974
  H      -2.542511     -1.382321      0.227734
  H      -6.087249     -4.735796      0.467796
  H      -8.163685     -3.471019      0.205140
  H      -9.361600     -1.316969     -0.037570
  H      -9.343372      1.108181     -0.222064
  H      -9.291505      3.013066     -0.350542
  H      -2.584166     -3.252009      0.736304
  H      -7.640482      5.608671     -0.503913
  H      -4.285416     -5.846261      0.102861
  H      -2.327319     -6.727624      0.435245
37
Coordinates from ORCA-job NO2_OH_3 E -1048.925793883041
  C      -7.108112      2.745659     -0.251682
  C      -5.847106      3.382956     -0.251426
  C      -4.667168      2.669956     -0.145642
  C      -4.682077      1.264056     -0.030146
  C      -3.474125      0.504077      0.073829
  C      -3.495823     -0.857046      0.189806
  C      -4.726532     -1.597944      0.220045
  C      -4.764695     -3.023526      0.351247
  C      -6.028841     -3.654277      0.349225
  C      -7.210071     -2.942741      0.217790
  C      -7.203512     -1.539957      0.095525
  C      -8.410346     -0.781389     -0.022522
  C      -8.394051      0.580259     -0.131960
  C      -7.161189      1.318705     -0.136886
  C      -5.934588      0.575513     -0.022137
  C      -5.951326     -0.855005      0.099118
  C      -8.329098      3.529588     -0.367444
  C      -3.535660     -3.803930      0.495506
  C      -8.434887      4.867453     -0.488817
  C      -3.420821     -5.142596      0.347997
  O      -2.224938     -5.753969      0.545232
  N      -9.742933      5.492169     -0.593890
  O      -9.742447      6.713369     -0.703560
  O     -10.749240      4.793836     -0.571127
  H      -5.797551      4.470079     -0.337861
  H      -3.707765      3.193802     -0.151074
  H      -2.519815      1.037300      0.054365
  H      -2.546052     -1.387730      0.252581
  H      -6.089174     -4.736508      0.481127
  H      -8.167311     -3.471523      0.225012
  H      -9.364016     -1.316694     -0.023308
  H      -9.343503      1.107486     -0.218665
  H      -9.289518      3.011833     -0.358808
  H      -2.612312     -3.281352      0.746161
  H      -7.636373      5.605339     -0.523808
  H      -4.252827     -5.791716      0.059184
  H      -2.320823     -6.694303      0.352999
37
Coordinates from ORCA-job NO2_OH_3 E -1048.925898572330
  C      -7.107614      2.744500     -0.254697
  C      -5.846330      3.381352     -0.254431
  C      -4.666790      2.668387     -0.144004
  C      -4.682273      1.262848     -0.024121
  C      -3.474622      0.502824      0.085033
  C      -3.497149     -0.858090      0.203753
  C      -4.728497     -1.597690      0.230896
  C      -4.766560     -3.022492      0.361007
  C      -6.029972     -3.653996      0.362509
  C      -7.211776     -2.942661      0.231651
  C      -7.205113     -1.540209      0.106189
  C      -8.411677     -0.781370     -0.014671
  C      -8.394637      0.579865     -0.128876
  C      -7.161455      1.318037     -0.135123
  C      -5.935262      0.574940     -0.016303
  C      -5.952880     -0.855094      0.108501
  C      -8.328138      3.528496     -0.374880
  C      -3.536727     -3.802715      0.500295
  C      -8.433369      4.866031     -0.500079
  C      -3.417118     -5.134487      0.327764
  O      -2.226403     -5.755783      0.517522
  N      -9.741161      5.490672     -0.609501
  O      -9.740571      6.712313     -0.713915
  O     -10.747865      4.793215     -0.579409
  H      -5.796322      4.468174     -0.344289
  H      -3.707251      3.191985     -0.149149
  H      -2.520137      1.035789      0.067499
  H      -2.548299     -1.390174      0.271502
  H      -6.088425     -4.736293      0.496038
  H      -8.169067     -3.471313      0.241512
  H      -9.365612     -1.316194     -0.014138
  H      -9.343833      1.107182     -0.217900
  H      -9.288726      3.011034     -0.366743
  H      -2.614295     -3.283599      0.764255
  H      -7.634702      5.603746     -0.535253
  H      -4.250307     -5.775607      0.021869
  H      -2.315693     -6.692391      0.305675
37
Coordinates from ORCA-job NO2_OH_3 E -1048.925292605200
  C      -7.106293      2.741246     -0.254741
  C      -5.844147      3.376669     -0.256547
  C      -4.665674      2.663759     -0.134838
  C      -4.682718      1.259319     -0.002479
  C      -3.475803      0.499224      0.119159
  C      -3.500530     -0.861123      0.244959
  C      -4.733928     -1.596818      0.265805
  C      -4.772008     -3.019556      0.392413
  C      -6.033082     -3.653191      0.406656
  C      -7.216751     -2.942128      0.279502
  C      -7.209719     -1.540802      0.144942
  C      -8.415652     -0.780833      0.018707
  C      -8.396444      0.579092     -0.108864
  C      -7.162280      1.316357     -0.121248
  C      -5.937153      0.573437      0.006767
  C      -5.957307     -0.855185      0.141422
  C      -8.325572      3.525424     -0.386296
  C      -3.540308     -3.800882      0.515074
  C      -8.429349      4.862098     -0.520772
  C      -3.406212     -5.107603      0.254358
  O      -2.234442     -5.762084      0.419222
  N      -9.736589      5.486596     -0.640098
  O      -9.731276      6.701007     -0.808434
  O     -10.739599      4.783811     -0.667669
  H      -5.792861      4.462524     -0.356694
  H      -3.705710      3.186569     -0.140914
  H      -2.520927      1.031598      0.105995
  H      -2.554802     -1.397620      0.325220
  H      -6.085202     -4.735389      0.546982
  H      -8.174319     -3.469985      0.299981
  H      -9.370486     -1.313990      0.025052
  H      -9.345003      1.106801     -0.202557
  H      -9.286618      3.008760     -0.379154
  H      -2.622149     -3.297737      0.831083
  H      -7.630324      5.599386     -0.556949
  H      -4.242679     -5.715945     -0.115430
  H      -2.302709     -6.681578      0.136370
37
Coordinates from ORCA-job NO2_OH_3 E -1048.925987103752
  C      -7.106945      2.742890     -0.257341
  C      -5.845432      3.379358     -0.258168
  C      -4.666292      2.666762     -0.141418
  C      -4.682196      1.261844     -0.014300
  C      -3.474726      0.502317      0.101574
  C      -3.497774     -0.858228      0.224520
  C      -4.730045     -1.596517      0.250260
  C      -4.768487     -3.020643      0.380993
  C      -6.030767     -3.653154      0.388008
  C      -7.213306     -2.942054      0.256418
  C      -7.206346     -1.540414      0.125176
  C      -8.412697     -0.781244      0.000700
  C      -8.394870      0.579251     -0.120636
  C      -7.161438      1.317291     -0.129890
  C      -5.935634      0.574601     -0.005694
  C      -5.954148     -0.854746      0.125044
  C      -8.327025      3.526555     -0.384530
  C      -3.538574     -3.802887      0.515857
  C      -8.431810      4.863554     -0.515212
  C      -3.411955     -5.123542      0.286941
  O      -2.233634     -5.763712      0.472342
  N      -9.739448      5.487786     -0.631318
  O      -9.738337      6.708441     -0.746867
  O     -10.745984      4.789733     -0.609987
  H      -5.795033      4.465631     -0.354229
  H      -3.706669      3.190208     -0.147316
  H      -2.520291      1.035445      0.085989
  H      -2.550537     -1.392073      0.298478
  H      -6.085970     -4.734851      0.528390
  H      -8.170824     -3.470149      0.272095
  H      -9.366992     -1.315414      0.004099
  H      -9.343835      1.106485     -0.212755
  H      -9.287671      3.009169     -0.377625
  H      -2.621368     -3.294575      0.821769
  H      -7.633159      5.601297     -0.550255
  H      -4.244337     -5.743795     -0.067725
  H      -2.312068     -6.689389      0.212598
37
Coordinates from ORCA-job NO2_OH_3 E -1048.926010056772
  C      -7.106822      2.742424     -0.257789
  C      -5.845211      3.378751     -0.259037
  C      -4.666155      2.666089     -0.141996
  C      -4.682189      1.261227     -0.014012
  C      -3.474722      0.501613      0.101541
  C      -3.497897     -0.858845      0.225429
  C      -4.730383     -1.596616      0.253044
  C      -4.768984     -3.020427      0.386028
  C      -6.031074     -3.653218      0.393075
  C      -7.213652     -2.942269      0.259432
  C      -7.206586     -1.540803      0.127089
  C      -8.412892     -0.781518      0.002077
  C      -8.394951      0.578910     -0.119768
  C      -7.161462      1.316938     -0.129427
  C      -5.935742      0.574221     -0.004725
  C      -5.954411     -0.855020      0.127032
  C      -8.326773      3.526165     -0.385821
  C      -3.539248     -3.802630      0.523799
  C      -8.431323      4.863130     -0.516957
  C      -3.411129     -5.121200      0.279818
  O      -2.235492     -5.763913      0.470852
  N      -9.738766      5.487363     -0.634218
  O      -9.737464      6.708043     -0.749006
  O     -10.745280      4.789383     -0.612246
  H      -5.794685      4.464940     -0.355974
  H      -3.706474      3.189423     -0.148476
  H      -2.520248      1.034636      0.084609
  H      -2.550889     -1.393506      0.298173
  H      -6.085646     -4.734501      0.536732
  H      -8.171223     -3.470273      0.275485
  H      -9.367246     -1.315587      0.005609
  H      -9.343877      1.106165     -0.212189
  H      -9.287473      3.008859     -0.379432
  H      -2.625804     -3.297149      0.845367
  H      -7.632620      5.600834     -0.551633
  H      -4.240155     -5.734991     -0.092754
  H      -2.311679     -6.685418      0.196256
37
Coordinates from ORCA-job NO2_OH_3 E -1048.926058430910
  C      -7.105575      2.739095     -0.261951
  C      -5.843225      3.374303     -0.265386
  C      -4.664853      2.661121     -0.145287
  C      -4.682021      1.256711     -0.011195
  C      -3.474841      0.496419      0.104857
  C      -3.499378     -0.863444      0.235500
  C      -4.733486     -1.597725      0.272138
  C      -4.773153     -3.019720      0.416769
  C      -6.034130     -3.653783      0.425465
  C      -7.216911     -2.943461      0.281245
  C      -7.208949     -1.543094      0.141337
  C      -8.414724     -0.782928      0.011793
  C      -8.395561      0.576905     -0.115091
  C      -7.161486      1.314466     -0.127284
  C      -5.936517      0.571435      0.001522
  C      -5.956698     -0.856949      0.140561
  C      -8.324729      3.523389     -0.394760
  C      -3.544286     -3.802411      0.568006
  C      -8.427938      4.860231     -0.528009
  C      -3.404059     -5.101918      0.235498
  O      -2.245301     -5.764988      0.450400
  N      -9.734542      5.485182     -0.650977
  O      -9.731870      6.705740     -0.766263
  O     -10.741482      4.787907     -0.630726
  H      -5.791695      4.459958     -0.367560
  H      -3.704739      3.183633     -0.154469
  H      -2.519996      1.028562      0.081274
  H      -2.554461     -1.402966      0.304142
  H      -6.084933     -4.732905      0.586122
  H      -8.174851     -3.470760      0.299830
  H      -9.369599     -1.316068      0.016584
  H      -9.344063      1.104533     -0.210001
  H      -9.285728      3.006613     -0.390866
  H      -2.654240     -3.317450      0.976343
  H      -7.628757      5.597514     -0.560483
  H      -4.213467     -5.673793     -0.234051
  H      -2.304378     -6.658127      0.090959
37
Coordinates from ORCA-job NO2_OH_3 E -1048.926063518910
  C      -7.105703      2.739508     -0.261821
  C      -5.843478      3.374954     -0.265037
  C      -4.664939      2.661925     -0.145557
  C      -4.681821      1.257433     -0.012389
  C      -3.474524      0.497302      0.103710
  C      -3.498887     -0.862638      0.233771
  C      -4.732833     -1.597286      0.268930
  C      -4.772087     -3.019370      0.412756
  C      -6.032944     -3.653538      0.421077
  C      -7.215917     -2.943323      0.278123
  C      -7.208301     -1.542842      0.139010
  C      -8.414217     -0.782911      0.009719
  C      -8.395284      0.576982     -0.116632
  C      -7.161324      1.314758     -0.128320
  C      -5.936201      0.571888     -0.000126
  C      -5.956133     -0.856555      0.138091
  C      -8.325092      3.523657     -0.393349
  C      -3.542786     -3.801907      0.562815
  C      -8.428681      4.860586     -0.525289
  C      -3.405883     -5.104155      0.242674
  O      -2.244896     -5.765935      0.454427
  N      -9.735542      5.485390     -0.646761
  O      -9.733222      6.705941     -0.762502
  O     -10.742327      4.787792     -0.627915
  H      -5.792171      4.460713     -0.366243
  H      -3.704934      3.184640     -0.154353
  H      -2.519759      1.029617      0.080898
  H      -2.553845     -1.401764      0.303334
  H      -6.083681     -4.733204      0.578257
  H      -8.173676     -3.470973      0.295702
  H      -9.368976     -1.316258      0.014176
  H      -9.343873      1.104483     -0.211314
  H      -9.285979      3.006667     -0.389284
  H      -2.649627     -3.313594      0.960327
  H      -7.629642      5.598033     -0.557605
  H      -4.219382     -5.681833     -0.212674
  H      -2.308055     -6.662952      0.105359
37
Coordinates from ORCA-job NO2_OH_3 E -1048.926065011068
  C      -7.105582      2.739269     -0.262531
  C      -5.843300      3.374622     -0.265968
  C      -4.664797      2.661563     -0.146324
  C      -4.681735      1.257114     -0.012657
  C      -3.474458      0.496964      0.103881
  C      -3.498996     -0.862915      0.234685
  C      -4.733138     -1.597277      0.269980
  C      -4.772280     -3.019239      0.414275
  C      -6.032975     -3.653518      0.422684
  C      -7.216048     -2.943384      0.279264
  C      -7.208461     -1.543002      0.139567
  C      -8.414346     -0.783040      0.009736
  C      -8.395289      0.576787     -0.117145
  C      -7.161284      1.314574     -0.128800
  C      -5.936217      0.571712     -0.000261
  C      -5.956307     -0.856635      0.138524
  C      -8.324964      3.523478     -0.393894
  C      -3.542582     -3.801719      0.565184
  C      -8.428539      4.860461     -0.525153
  C      -3.405554     -5.102563      0.241447
  O      -2.245275     -5.766485      0.453317
  N      -9.735419      5.485335     -0.646407
  O      -9.733108      6.705907     -0.762049
  O     -10.742209      4.787697     -0.628478
  H      -5.791922      4.460353     -0.367448
  H      -3.704770      3.184236     -0.155313
  H      -2.519672      1.029228      0.080790
  H      -2.554256     -1.402464      0.304687
  H      -6.083339     -4.733170      0.580060
  H      -8.173774     -3.471084      0.296897
  H      -9.369134     -1.316332      0.014115
  H      -9.343831      1.104294     -0.212250
  H      -9.285844      3.006473     -0.390120
  H      -2.650722     -3.313741      0.966066
  H      -7.629480      5.597911     -0.556956
  H      -4.218713     -5.678520     -0.216828
  H      -2.308304     -6.661660      0.099406
37
Coordinates from ORCA-job NO2_OH_3 E -1048.926065338823
  C      -7.105512      2.739110     -0.262962
  C      -5.843200      3.374401     -0.266591
  C      -4.664723      2.661330     -0.146770
  C      -4.681698      1.256922     -0.012659
  C      -3.474433      0.496777      0.104136
  C      -3.499049     -0.863050      0.235402
  C      -4.733304     -1.597292      0.270901
  C      -4.772442     -3.019201      0.415550
  C      -6.033054     -3.653519      0.423904
  C      -7.216152     -2.943414      0.280131
  C      -7.208557     -1.543099      0.140138
  C      -8.414420     -0.783111      0.009941
  C      -8.395284      0.576672     -0.117252
  C      -7.161259      1.314461     -0.128930
  C      -5.936229      0.571608     -0.000108
  C      -5.956409     -0.856686      0.139099
  C      -8.324880      3.523346     -0.394389
  C      -3.542530     -3.801690      0.566854
  C      -8.428432      4.860366     -0.525248
  C      -3.405262     -5.101607      0.240215
  O      -2.245669     -5.766950      0.452542
  N      -9.735296      5.485266     -0.646643
  O      -9.732972      6.705873     -0.761884
  O     -10.742084      4.787614     -0.629151
  H      -5.791767      4.460096     -0.368426
  H      -3.704679      3.183970     -0.155987
  H      -2.519647      1.029032      0.080813
  H      -2.554470     -1.402831      0.305569
  H      -6.083294     -4.733126      0.581653
  H      -8.173868     -3.471127      0.297854
  H      -9.369228     -1.316365      0.014264
  H      -9.343796      1.104183     -0.212668
  H      -9.285747      3.006319     -0.390963
  H      -2.651714     -3.313979      0.970323
  H      -7.629360      5.597821     -0.556584
  H      -4.217817     -5.676320     -0.220734
  H      -2.308390     -6.660569      0.094644
