37
Coordinates from ORCA-job NO2_OH E -1048.765120518825
  C      -7.127206      2.613693     -0.240885
  C      -5.924788      3.222585     -0.240974
  C      -4.779153      2.540746     -0.144225
  C      -4.802478      1.205785     -0.042499
  C      -3.645708      0.537251      0.053965
  C      -3.643693     -0.796229      0.157054
  C      -4.782921     -1.516793      0.168609
  C      -4.785213     -2.874332      0.274234
  C      -5.983794     -3.489589      0.274660
  C      -7.130026     -2.808806      0.176512
  C      -7.107667     -1.473451      0.074061
  C      -8.263948     -0.804675     -0.022900
  C      -8.265896      0.528981     -0.125527
  C      -7.129086      1.254541     -0.136889
  C      -5.974291      0.544530     -0.037291
  C      -5.938046     -0.808347      0.068515
  C      -8.248133      3.371283     -0.342103
  C      -3.667120     -3.631864      0.377923
  C      -8.372397      4.711028     -0.448169
  C      -3.553292     -4.967612      0.487418
  O      -2.331142     -5.555305      0.582566
  N      -9.469701      5.315721     -0.536767
  O      -9.498337      6.626424     -0.635750
  O     -10.643042      4.725828     -0.538907
  H      -5.795495      4.311841     -0.319602
  H      -3.825392      3.097069     -0.149853
  H      -2.678988      1.071127      0.050360
  H      -2.637842     -1.232816      0.229884
  H      -6.101583     -4.580564      0.354864
  H      -8.082858     -3.366496      0.182232
  H      -9.230296     -1.339367     -0.019478
  H      -9.274762      0.958385     -0.197869
  H      -9.222930      2.866633     -0.341771
  H      -2.672936     -3.162052      0.380617
  H      -7.477448      5.351314     -0.461611
  H      -4.393386     -5.674552      0.510022
  H      -2.433857     -6.517997      0.657320
37
Coordinates from ORCA-job NO2_OH E -1048.862642776101
  C      -7.134407      2.673645     -0.245644
  C      -5.901961      3.291082     -0.245214
  C      -4.740343      2.595910     -0.146831
  C      -4.761191      1.228661     -0.042547
  C      -3.581976      0.528911      0.057134
  C      -3.588526     -0.822103      0.161194
  C      -4.759932     -1.554055      0.172375
  C      -4.770984     -2.942465      0.279997
  C      -6.000091     -3.564196      0.279714
  C      -7.163478     -2.869566      0.179901
  C      -7.145457     -1.503269      0.074949
  C      -8.324304     -0.803393     -0.025224
  C      -8.318677      0.547868     -0.128880
  C      -7.149065      1.282425     -0.139658
  C      -5.966897      0.555190     -0.037706
  C      -5.942528     -0.828015      0.069920
  C      -8.285157      3.443696     -0.349066
  C      -3.616595     -3.714102      0.386179
  C      -8.415943      4.792388     -0.456239
  C      -3.492418     -5.052466      0.496298
  O      -2.266449     -5.628080      0.590555
  N      -9.564398      5.410756     -0.548031
  O      -9.586310      6.696307     -0.645065
  O     -10.700602      4.803193     -0.547375
  H      -5.778618      4.378396     -0.323938
  H      -3.788134      3.147389     -0.152173
  H      -2.615393      1.054994      0.054102
  H      -2.591529     -1.272503      0.234697
  H      -6.114150     -4.652805      0.359818
  H      -8.114711     -3.422895      0.185353
  H      -9.290596     -1.330287     -0.022393
  H      -9.318268      0.992377     -0.202000
  H      -9.256971      2.936468     -0.348438
  H      -2.628572     -3.235511      0.387906
  H      -7.532356      5.442031     -0.470870
  H      -4.327993     -5.763226      0.519422
  H      -2.359871     -6.588832      0.665521
37
Coordinates from ORCA-job NO2_OH E -1048.911402554028
  C      -7.132683      2.724951     -0.249250
  C      -5.877495      3.352156     -0.248681
  C      -4.701995      2.645396     -0.148897
  C      -4.719400      1.251057     -0.042430
  C      -3.522180      0.519438      0.060306
  C      -3.537757     -0.844485      0.164923
  C      -4.741064     -1.583160      0.175364
  C      -4.763029     -2.996424      0.284377
  C      -6.016044     -3.624829      0.283669
  C      -7.194167     -2.918111      0.182485
  C      -7.182051     -1.525730      0.075388
  C      -8.378960     -0.793961     -0.027830
  C      -8.365781      0.570217     -0.132122
  C      -7.162848      1.308398     -0.141883
  C      -5.955390      0.567858     -0.037991
  C      -5.948566     -0.843174      0.070981
  C      -8.316944      3.500729     -0.354567
  C      -3.571587     -3.775561      0.392527
  C      -8.447023      4.850564     -0.462164
  C      -3.447173     -5.115265      0.502800
  O      -2.222088     -5.687677      0.596532
  N      -9.653759      5.472000     -0.556705
  O      -9.663091      6.717494     -0.650707
  O     -10.723583      4.827828     -0.550529
  H      -5.771867      4.438333     -0.328010
  H      -3.750772      3.188938     -0.153723
  H      -2.558080      1.039887      0.057570
  H      -2.555623     -1.318330      0.239577
  H      -6.116233     -4.711742      0.364076
  H      -8.144224     -3.464347      0.187455
  H      -9.342972     -1.315011     -0.025346
  H      -9.349893      1.039954     -0.206541
  H      -9.284013      2.987687     -0.353278
  H      -2.593103     -3.283237      0.392702
  H      -7.583533      5.518266     -0.479142
  H      -4.287170     -5.820095      0.525385
  H      -2.312714     -6.646097      0.671423
37
Coordinates from ORCA-job NO2_OH E -1048.923636967952
  C      -7.123809      2.752764     -0.249599
  C      -5.858521      3.387098     -0.249193
  C      -4.676351      2.673984     -0.148554
  C      -4.690056      1.265302     -0.040828
  C      -3.483391      0.510893      0.063698
  C      -3.504629     -0.856794      0.167982
  C      -4.729562     -1.598072      0.177643
  C      -4.761116     -3.025335      0.286602
  C      -6.026405     -3.657475      0.285765
  C      -7.211362     -2.943950      0.184606
  C      -7.205128     -1.537783      0.076735
  C      -8.411375     -0.783213     -0.028136
  C      -8.394128      0.584653     -0.132398
  C      -7.167861      1.322697     -0.141288
  C      -5.943653      0.576523     -0.036484
  C      -5.953204     -0.851870      0.072753
  C      -8.335315      3.529704     -0.357126
  C      -3.540705     -3.805475      0.395027
  C      -8.456854      4.875120     -0.466195
  C      -3.424528     -5.145677      0.504513
  O      -2.204181     -5.725859      0.596937
  N      -9.716705      5.498423     -0.564461
  O      -9.711340      6.721669     -0.658725
  O     -10.736242      4.816562     -0.552577
  H      -5.778625      4.473219     -0.329736
  H      -3.723446      3.208651     -0.152893
  H      -2.522994      1.032233      0.060584
  H      -2.539642     -1.358145      0.243762
  H      -6.106403     -4.743721      0.366219
  H      -8.162789     -3.482217      0.188965
  H      -9.371924     -1.304850     -0.025449
  H      -9.360387      1.083360     -0.208345
  H      -9.296401      3.010707     -0.354954
  H      -2.573912     -3.296597      0.392907
  H      -7.616419      5.565746     -0.486844
  H      -4.276267     -5.835512      0.525771
  H      -2.299219     -6.682842      0.671060
37
Coordinates from ORCA-job NO2_OH E -1048.925096934178
  C      -7.118124      2.755110     -0.248310
  C      -5.853353      3.391814     -0.247971
  C      -4.670854      2.678403     -0.147099
  C      -4.682647      1.268455     -0.039204
  C      -3.474044      0.508459      0.065641
  C      -3.495431     -0.857247      0.169360
  C      -4.725479     -1.599987      0.178679
  C      -4.760217     -3.029706      0.286863
  C      -6.026531     -3.662424      0.286085
  C      -7.211598     -2.948384      0.185783
  C      -7.208036     -1.540991      0.078235
  C      -8.416097     -0.780833     -0.026676
  C      -8.399368      0.585002     -0.130739
  C      -7.167108      1.323429     -0.139580
  C      -5.938489      0.578003     -0.034754
  C      -5.953188     -0.854343      0.074235
  C      -8.338881      3.533319     -0.357383
  C      -3.530028     -3.809535      0.394519
  C      -8.452161      4.875593     -0.468201
  C      -3.422140     -5.149871      0.503195
  O      -2.206902     -5.740517      0.594614
  N      -9.735319      5.504263     -0.568921
  O      -9.726414      6.728194     -0.665531
  O     -10.748624      4.812395     -0.554309
  H      -5.789269      4.478586     -0.329242
  H      -3.715534      3.208791     -0.151115
  H      -2.516216      1.034694      0.062054
  H      -2.538677     -1.372701      0.245768
  H      -6.094453     -4.749165      0.366237
  H      -8.165209     -3.482851      0.189858
  H      -9.374203     -1.307184     -0.023431
  H      -9.357080      1.098470     -0.207478
  H      -9.297711      3.012432     -0.354374
  H      -2.569175     -3.291924      0.390772
  H      -7.624138      5.580628     -0.491854
  H      -4.283169     -5.827668      0.523793
  H      -2.308985     -6.696791      0.668228
37
Coordinates from ORCA-job NO2_OH E -1048.925565206692
  C      -7.113782      2.752003     -0.246864
  C      -5.851608      3.389880     -0.246454
  C      -4.670080      2.677270     -0.145482
  C      -4.681243      1.269035     -0.037793
  C      -3.472264      0.508264      0.067067
  C      -3.492463     -0.854762      0.170214
  C      -4.723285     -1.598994      0.179279
  C      -4.759323     -3.028411      0.286566
  C      -6.024398     -3.660748      0.285877
  C      -7.208203     -2.947353      0.186551
  C      -7.205601     -1.541596      0.079573
  C      -8.413923     -0.780687     -0.024970
  C      -8.398704      0.582424     -0.128884
  C      -7.165051      1.321644     -0.137968
  C      -5.935490      0.578009     -0.033291
  C      -5.951688     -0.855016      0.075422
  C      -8.338271      3.532380     -0.357142
  C      -3.524943     -3.808420      0.393269
  C      -8.444568      4.872289     -0.469814
  C      -3.424365     -5.148809      0.501416
  O      -2.214387     -5.749899      0.591944
  N      -9.743039      5.503855     -0.572006
  O      -9.735731      6.726293     -0.671330
  O     -10.753364      4.810163     -0.555161
  H      -5.799340      4.477190     -0.328056
  H      -3.712552      3.204280     -0.149028
  H      -2.517194      1.040188      0.063142
  H      -2.541140     -1.379753      0.247181
  H      -6.083871     -4.747937      0.365583
  H      -8.163849     -3.478800      0.190454
  H      -9.369358     -1.312595     -0.020974
  H      -9.350738      1.106019     -0.206059
  H      -9.296559      3.011171     -0.352982
  H      -2.568194     -3.284535      0.387934
  H      -7.629014      5.591572     -0.496847
  H      -4.293192     -5.816287      0.521921
  H      -2.324078     -6.705411      0.665456
37
Coordinates from ORCA-job NO2_OH E -1048.925665474833
  C      -7.111648      2.748998     -0.245989
  C      -5.851191      3.387084     -0.245424
  C      -4.670442      2.674883     -0.144392
  C      -4.682327      1.268323     -0.037002
  C      -3.473622      0.508808      0.067806
  C      -3.492977     -0.852980      0.170613
  C      -4.722805     -1.597861      0.179457
  C      -4.758957     -3.026221      0.286136
  C      -6.023009     -3.657839      0.285467
  C      -7.205840     -2.944775      0.186712
  C      -7.202498     -1.540605      0.080177
  C      -8.410502     -0.781009     -0.024010
  C      -8.396119      0.580836     -0.127872
  C      -7.163223      1.320416     -0.137146
  C      -5.934580      0.577648     -0.032579
  C      -5.950187     -0.854665      0.075950
  C      -8.335743      3.531267     -0.356768
  C      -3.524646     -3.806714      0.392184
  C      -8.439746      4.870045     -0.470979
  C      -3.426800     -5.147055      0.500418
  O      -2.219448     -5.753108      0.590196
  N      -9.744638      5.500376     -0.573346
  O      -9.740037      6.722470     -0.674678
  O     -10.753382      4.804868     -0.554209
  H      -5.803157      4.474611     -0.326940
  H      -3.711811      3.200185     -0.147521
  H      -2.520149      1.043892      0.063864
  H      -2.543399     -1.381164      0.247903
  H      -6.080170     -4.745187      0.364754
  H      -8.162510     -3.474659      0.190536
  H      -9.364354     -1.316050     -0.019525
  H      -9.346237      1.108036     -0.205119
  H      -9.294543      3.010911     -0.351459
  H      -2.569433     -3.280279      0.385687
  H      -7.632815      5.598883     -0.500750
  H      -4.298803     -5.810292      0.521492
  H      -2.333105     -6.708158      0.664100
37
Coordinates from ORCA-job NO2_OH E -1048.925681586331
  C      -7.111073      2.747958     -0.245536
  C      -5.850969      3.386072     -0.244859
  C      -4.670377      2.673850     -0.143800
  C      -4.683060      1.267742     -0.036607
  C      -3.474480      0.509089      0.068178
  C      -3.493646     -0.852628      0.170806
  C      -4.722821     -1.597602      0.179450
  C      -4.758865     -3.025470      0.285791
  C      -6.022758     -3.656693      0.285089
  C      -7.205374     -2.943560      0.186584
  C      -7.201161     -1.539810      0.080304
  C      -8.409058     -0.781129     -0.023692
  C      -8.394771      0.580630     -0.127508
  C      -7.162476      1.320188     -0.136797
  C      -5.934554      0.577447     -0.032294
  C      -5.949457     -0.854373      0.076097
  C      -8.333945      3.531238     -0.356368
  C      -3.525536     -3.806328      0.391464
  C      -8.438230      4.869672     -0.471792
  C      -3.427634     -5.146576      0.500155
  O      -2.220757     -5.753441      0.589365
  N      -9.744752      5.498009     -0.573720
  O      -9.741793      6.719746     -0.676716
  O     -10.752531      4.801560     -0.552868
  H      -5.803150      4.473661     -0.326163
  H      -3.711471      3.198700     -0.146687
  H      -2.521458      1.045018      0.064377
  H      -2.544011     -1.380817      0.248211
  H      -6.080488     -4.744072      0.364036
  H      -8.162292     -3.473029      0.190362
  H      -9.362432     -1.317052     -0.019052
  H      -9.344827      1.108098     -0.204707
  H      -9.293386      3.011918     -0.350035
  H      -2.570508     -3.279450      0.384134
  H      -7.635485      5.603078     -0.503517
  H      -4.299982     -5.809384      0.522114
  H      -2.335282     -6.708342      0.663949
37
Coordinates from ORCA-job NO2_OH E -1048.925685642589
  C      -7.110891      2.747788     -0.245222
  C      -5.850677      3.385956     -0.244451
  C      -4.670029      2.673637     -0.143408
  C      -4.683214      1.267444     -0.036372
  C      -3.474617      0.509102      0.068418
  C      -3.493843     -0.852799      0.170897
  C      -4.722810     -1.597726      0.179328
  C      -4.758838     -3.025486      0.285428
  C      -6.022889     -3.656519      0.284654
  C      -7.205554     -2.943244      0.186297
  C      -7.200801     -1.539408      0.080200
  C      -8.408748     -0.781076     -0.023696
  C      -8.394331      0.580858     -0.127430
  C      -7.162218      1.320276     -0.136624
  C      -5.934595      0.577363     -0.032179
  C      -5.949135     -0.854277      0.076062
  C      -8.332855      3.531622     -0.355935
  C      -3.526221     -3.806580      0.390865
  C      -8.437838      4.869895     -0.472523
  C      -3.427766     -5.146720      0.500321
  O      -2.220738     -5.753273      0.589024
  N      -9.744965      5.496746     -0.573884
  O      -9.742885      6.718370     -0.678210
  O     -10.752266      4.799745     -0.551141
  H      -5.802402      4.473559     -0.325499
  H      -3.711114      3.198425     -0.146120
  H      -2.521659      1.045096      0.064803
  H      -2.543880     -1.380453      0.248371
  H      -6.081506     -4.743899      0.363284
  H      -8.162465     -3.472671      0.190016
  H      -9.362024     -1.317117     -0.019051
  H      -9.344609      1.108006     -0.204596
  H      -9.292869      3.013218     -0.348504
  H      -2.571088     -3.279784      0.382665
  H      -7.637466      5.605836     -0.505978
  H      -4.299856     -5.809886      0.523386
  H      -2.335191     -6.708107      0.664546
37
Coordinates from ORCA-job NO2_OH E -1048.925686792790
  C      -7.110798      2.747902     -0.244903
  C      -5.850411      3.386136     -0.244055
  C      -4.669692      2.673761     -0.143089
  C      -4.683063      1.267357     -0.036217
  C      -3.474414      0.508988      0.068561
  C      -3.493750     -0.853058      0.170878
  C      -4.722745     -1.597925      0.179102
  C      -4.758827     -3.025741      0.284992
  C      -6.023057     -3.656700      0.284121
  C      -7.205804     -2.943329      0.185899
  C      -7.200858     -1.539300      0.079980
  C      -8.408890     -0.780962     -0.023845
  C      -8.394335      0.581110     -0.127443
  C      -7.162163      1.320392     -0.136487
  C      -5.934562      0.577342     -0.032134
  C      -5.949036     -0.854306      0.075923
  C      -8.332320      3.532005     -0.355410
  C      -3.526515     -3.806962      0.390256
  C      -8.437774      4.870165     -0.473117
  C      -3.427698     -5.147000      0.500748
  O      -2.220430     -5.753147      0.588962
  N      -9.745311      5.496255     -0.573842
  O      -9.743636      6.717777     -0.679641
  O     -10.752415      4.799062     -0.549419
  H      -5.801857      4.473752     -0.324826
  H      -3.710825      3.198599     -0.145665
  H      -2.521395      1.044833      0.065122
  H      -2.543560     -1.380315      0.248395
  H      -6.082214     -4.744086      0.362422
  H      -8.162647     -3.472835      0.189535
  H      -9.362196     -1.316904     -0.019269
  H      -9.344753      1.108029     -0.204601
  H      -9.292759      3.014298     -0.346810
  H      -2.571249     -3.280360      0.381038
  H      -7.638684      5.607435     -0.508201
  H      -4.299567     -5.810435      0.525132
  H      -2.334644     -6.707914      0.665653
