! B3LYP def2-SVP Opt PAL8 FREQ 
#defgrid3 slowconv VeryTightSCF
*xyz 0 1
  C   -7.127206    2.613693   -0.240885
  C   -5.924788    3.222585   -0.240974
  C   -4.779153    2.540746   -0.144225
  C   -4.802478    1.205785   -0.042499
  C   -3.645708    0.537251    0.053965
  C   -3.643693   -0.796229    0.157054
  C   -4.782921   -1.516793    0.168609
  C   -4.785213   -2.874332    0.274234
  C   -5.983794   -3.489589    0.274660
  C   -7.130026   -2.808806    0.176512
  C   -7.107667   -1.473451    0.074061
  C   -8.263948   -0.804675   -0.022900
  C   -8.265896    0.528981   -0.125527
  C   -7.129086    1.254541   -0.136889
  C   -5.974291    0.544530   -0.037291
  C   -5.938046   -0.808347    0.068515
  C   -8.248133    3.371283   -0.342103
  C   -3.667120   -3.631864    0.377923
  C   -8.372397    4.711028   -0.448169
  C   -3.553292   -4.967612    0.487418
  O   -2.331142   -5.555305    0.582566
  N   -9.469701    5.315721   -0.536767
  O   -9.498337    6.626424   -0.635750
  O  -10.643042    4.725828   -0.538907
  H   -5.795495    4.311841   -0.319602
  H   -3.825392    3.097069   -0.149853
  H   -2.678988    1.071127    0.050360
  H   -2.637842   -1.232816    0.229884
  H   -6.101583   -4.580564    0.354864
  H   -8.082858   -3.366496    0.182232
  H   -9.230296   -1.339367   -0.019478
  H   -9.274762    0.958385   -0.197869
  H   -9.222930    2.866633   -0.341771
  H   -2.672936   -3.162052    0.380617
  H   -7.477448    5.351314   -0.461611
  H   -4.393386   -5.674552    0.510022
  H   -2.433857   -6.517997    0.657320
*