%chk=bmk.chk
%mem=10GB
%nprocs=8
#P bmk/cc-pvdz polar

p

0 1
C    -1.7811853    3.7063509   -0.1221160 
C    -0.5215787    4.3449124   -0.1869911 
C     0.6621492    3.6321401   -0.1663442 
C     0.6546970    2.2232393   -0.0756911 
C     1.8661732    1.4630705   -0.0654762 
C     1.8497474    0.0989033    0.0254983 
C     0.6244893   -0.6415185    0.1248434 
C     0.6000981   -2.0713886    0.2345191 
C    -0.6635921   -2.7035593    0.2993838 
C    -1.8511992   -1.9917447    0.2487012 
C    -1.8550344   -0.5866546    0.1524468 
C    -3.0657019    0.1727248    0.1232675 
C    -3.0569958    1.5369097    0.0381457 
C    -1.8275252    2.2770403   -0.0293998 
C    -0.5954759    1.5332927   -0.0027142 
C    -0.6048642    0.1006952    0.0935307 
C    -3.0053566    4.4907210   -0.1507151 
C     1.8325629   -2.8518108    0.2916384 
C    -3.1195733    5.8320434   -0.2282330 
C     1.9217361   -4.1766847   -0.0222395 
N     3.0182853   -4.9852745    0.1086898 
C     3.0878951   -6.2280881   -0.6353866 
C     4.2603286   -4.4475757    0.6200373 
N    -4.4307195    6.4556556   -0.2466902 
O    -4.4378887    7.6803930   -0.3158582 
O    -5.4348778    5.7550285   -0.1941799 
H    -0.4781248    5.4334912   -0.2580547 
H     1.6194505    4.1570499   -0.2218409 
H     2.8171948    1.9974668   -0.1404270 
H     2.7983802   -0.4381031    0.0085025 
H    -0.7093446   -3.7867905    0.4302268 
H    -2.8059205   -2.5221157    0.3094867 
H    -4.0180220   -0.3631058    0.1715892 
H    -4.0102943    2.0640871    0.0204451 
H    -3.9637207    3.9708612   -0.1062247 
H     2.7394141   -2.3316051    0.6000120 
H    -2.3248411    6.5728033   -0.2822156 
H     1.0470119   -4.6969550   -0.4256142 
H     2.0727142   -6.6028518   -0.8330141 
H     3.6031242   -6.1146782   -1.6108130 
H     3.6277497   -6.9942322   -0.0547689 
H     4.9516905   -5.2716359    0.8491366 
H     4.7600429   -3.7675189   -0.0997332 
H     4.0786872   -3.8828475    1.5484834 


