85
Energy =
C    -3.6119234   -1.8652110    0.0147686 
C    -2.6804108   -2.7670809   -0.4020522 
C    -5.0841432    5.6771631    0.6264551 
C    -5.7381527    6.8048473    0.1027981 
C    -2.4030798    4.0989283    1.5346094 
C    -1.7204207   -1.1871243    0.7170417 
C     2.2366940   -3.8153967    3.6322046 
C    -4.0627883    2.6113154    0.2961999 
C    -5.3494260    7.3322604   -1.1325711 
C    -4.0482115    5.0964701   -0.0953858 
C    -3.1824072    3.8817445    0.2169339 
C     1.2161556   -5.1065421    1.6802302 
C    -3.6687703    5.6357120   -1.3336153 
C     2.5036835   -4.6084321    2.3478123 
C    -4.3070607    6.7554560   -1.8720043 
C    -2.2489075    3.8518367   -1.0113846 
C    -0.7438493    1.9221718   -0.4908780 
C     0.7107439    0.0211459    0.1450350 
C     2.1320161   -1.9052965    0.7552675 
C     4.4403530   -5.8599287    2.1507949 
C     5.2782215   -6.9309228    2.4109438 
C     3.4622303   -3.9176762    1.3836085 
C    -1.2010270    2.9991327   -1.3000769 
C     0.3525035    1.1099971   -0.7314955 
C     1.8908262   -0.7087323    0.0063268 
C     3.2540679   -2.6996448    0.6765802 
C     4.6055846   -4.7024823    1.2963868 
C    -1.9564127    5.1459544   -3.1205730 
C     1.2527237    1.2975176   -1.9363431 
C     2.9476974   -0.2631981   -0.9895771 
C     2.7366149    1.1464245   -1.5584150 
C     3.7426174    1.5337608   -2.6986599 
C     3.6150748    3.0418958   -3.0020337 
C     3.4872023    0.7420169   -3.9969945 
C     5.1896925    1.2720092   -2.2298981 
N    -2.9769717   -0.8597775    0.7220730 
O    -1.4662734   -2.3473932    0.0528129 
S    -0.3931828   -0.3697166    1.5385544 
O     3.2458884   -5.8001707    2.7486177 
C     6.5679283   -7.0658522    1.8135029 
N    -2.6105370    4.8765786   -1.8595844 
C     4.8497261   -7.9558799    3.3117540 
C     5.7258939   -4.3766263    0.4832560 
N     7.6238978   -7.2150086    1.3500574 
N     4.5114556   -8.7957914    4.0411294 
N     6.5903197   -4.0266818   -0.2108334 
H    -4.6877314   -1.8666449   -0.1518723 
H    -2.7026157   -3.6833883   -0.9855944 
H    -5.3913198    5.2655680    1.5918237 
H    -6.5525435    7.2711372    0.6622056 
H    -1.7743157    3.2326542    1.7843907 
H    -1.7586801    4.9891570    1.4728643 
H    -3.1119790    4.2502186    2.3636854 
H     1.6189029   -2.9284190    3.4332886 
H     1.7052467   -4.4592692    4.3488915 
H     3.1821811   -3.4894331    4.0905134 
H    -3.4812652    1.7033369    0.5105921 
H    -4.8062529    2.7301286    1.1006405 
H    -4.6111067    2.4554600   -0.6458762 
H    -5.8630322    8.2096584   -1.5339931 
H     0.5713625   -4.2695326    1.3777674 
H     1.4531099   -5.7058923    0.7886431 
H     0.6637080   -5.7408653    2.3895484 
H    -4.0162680    7.1808858   -2.8341789 
H    -1.3050511    1.7085842    0.4183845 
H     1.3248933   -2.2063211    1.4211882 
H    -0.6705165    3.1814599   -2.2355339 
H     4.0774705   -2.4070245    0.0204774 
H    -2.4536702    5.9820389   -3.6249883 
H    -0.8951244    5.4104226   -2.9718630 
H    -2.0029296    4.2657653   -3.7833565 
H     0.9905276    0.5444534   -2.7025430 
H     1.0722543    2.2795789   -2.3897941 
H     3.9271758   -0.3213011   -0.4914417 
H     2.9880388   -1.0047967   -1.8091814 
H     2.9274778    1.8589154   -0.7338415 
H     4.3566148    3.3467008   -3.7581465 
H     3.7931511    3.6477875   -2.0978628 
H     2.6223803    3.3088903   -3.3973986 
H     4.2427873    1.0023550   -4.7561142 
H     3.5494166   -0.3467914   -3.8394450 
H     2.4994293    0.9648835   -4.4310696 
H     5.3955518    1.7657718   -1.2650388 
H     5.4071634    0.1992240   -2.1149276 
H     5.9081013    1.6693711   -2.9651224 
