43
Energy =
C   -12.1142391    3.8659762   -0.4249648 
C   -10.8591543    4.5063334   -0.5230005 
C    -9.6692346    3.8073298   -0.4322437 
C    -9.6660222    2.4110787   -0.2308659 
C    -8.4481787    1.6647468   -0.1424123 
C    -8.4547883    0.3125634    0.0558470 
C    -9.6767854   -0.4287167    0.1942852 
C    -9.6921516   -1.8457962    0.4114607 
C   -10.9506785   -2.4828017    0.5097375 
C   -12.1436388   -1.7879020    0.3887112 
C   -12.1566185   -0.3950861    0.1829373 
C   -13.3731542    0.3482759    0.0719703 
C   -13.3734650    1.7007548   -0.1220378 
C   -12.1491831    2.4485628   -0.2203414 
C   -10.9121553    1.7191751   -0.1187091 
C   -10.9113551    0.2979747    0.0888788 
C   -13.3466055    4.6413074   -0.5258765 
C    -8.4536993   -2.6110551    0.5386904 
C   -13.4682729    5.9466856   -0.8802952 
C    -8.3511637   -3.9510958    0.3071807 
C   -14.7309203    6.6063750   -0.9313519 
N    -7.2510685   -4.7437256    0.5017464 
C    -7.1646759   -6.0256058   -0.1704172 
C    -6.0184703   -4.1643330    0.9886579 
N   -15.7526960    7.1612448   -0.9812693 
H   -10.8202583    5.5887275   -0.6604048 
H    -8.7155802    4.3361400   -0.5103450 
H    -7.5005952    2.2006709   -0.2457352 
H    -7.5023303   -0.2162968    0.0964156 
H   -10.9881222   -3.5532992    0.7226247 
H   -13.0950764   -2.3202020    0.4774911 
H   -14.3215950   -0.1919898    0.1427841 
H   -14.3318920    2.2113884   -0.2102705 
H   -14.2780497    4.1235750   -0.2902294 
H    -7.5564377   -2.0650854    0.8304626 
H   -12.6041529    6.5579532   -1.1559101 
H    -9.2171729   -4.5004344   -0.0760665 
H    -8.1746949   -6.4277455   -0.3391421 
H    -6.6566466   -5.9618541   -1.1543762 
H    -6.6097162   -6.7480665    0.4503650 
H    -5.5198638   -3.5224413    0.2336365 
H    -6.2126961   -3.5475841    1.8808254 
H    -5.3203175   -4.9657224    1.2715570 
