%chk=beta.chk
%mem=10GB
%nprocs=16
#P b3lyp/cc-pvdz polar

p3

0 1
C    -7.1170523    2.8813039   -0.2574687 
C    -5.8585338    3.5246054   -0.2419277 
C    -4.6759319    2.8165593   -0.1401091 
C    -4.6838196    1.4079505   -0.0495150 
C    -3.4736019    0.6543054    0.0680186 
C    -3.4900693   -0.7099798    0.1525104 
C    -4.7144884   -1.4586122    0.1195282 
C    -4.7401562   -2.8895691    0.1959212 
C    -6.0017785   -3.5275768    0.1791213 
C    -7.1889783   -2.8170017    0.1049870 
C    -7.1921251   -1.4113938    0.0192863 
C    -8.4019629   -0.6561424   -0.0813763 
C    -8.3926061    0.7074489   -0.1719782 
C    -7.1637407    1.4519835   -0.1676220 
C    -5.9330200    0.7127777   -0.0660606 
C    -5.9429310   -0.7202226    0.0224268 
C    -8.3404560    3.6612268   -0.3617395 
C    -3.5087622   -3.6714398    0.2756172 
C    -8.4535871    5.0016855   -0.4508519 
C    -3.4179840   -4.9458496    0.7380511 
N    -2.2938711   -5.7297538    0.7266201 
N    -9.7634148    5.6214673   -0.5483128 
O    -9.7697048    6.8456853   -0.6238281 
O   -10.7667086    4.9178727   -0.5508402 
H    -5.8145398    4.6132969   -0.3105052 
H    -3.7193809    3.3455930   -0.1278963 
H    -2.5238254    1.1953579    0.0961841 
H    -2.5430246   -1.2392522    0.2590840 
H    -6.0456585   -4.6186967    0.1911045 
H    -8.1428013   -3.3520833    0.0882418 
H    -9.3536128   -1.1952584   -0.0855989 
H    -9.3448657    1.2314265   -0.2472057 
H    -9.2979741    3.1380786   -0.3721304 
H    -2.5833631   -3.1990301   -0.0658554 
H    -7.6590533    5.7445520   -0.4611987 
H    -4.2997802   -5.4506656    1.1461893 
H    -2.2416446   -6.5107664    1.3680919 
H    -1.4031905   -5.3024230    0.4982069 


