! B3LYP def2-SVP Opt PAL8 FREQ
*xyz 0 1
  C  -12.076799    3.710487   -0.363930
  C  -10.882321    4.334033   -0.364956
  C   -9.730517    3.663047   -0.265714
  C   -9.741835    2.327887   -0.161211
  C   -8.579721    1.669598   -0.063065
  C   -8.566062    0.336259    0.041724
  C   -9.696455   -0.399445    0.054170
  C   -9.686563   -1.758690    0.160458
  C  -10.884043   -2.377392    0.161754
  C  -12.035310   -1.705383    0.063913
  C  -12.023095   -0.370534   -0.040325
  C  -13.185557    0.287659   -0.138029
  C  -13.199175    1.620857   -0.243458
  C  -12.066906    2.352584   -0.256196
  C  -10.905974    1.653403   -0.154805
  C  -10.857203    0.300933   -0.046725
  C  -13.202002    4.458963   -0.468962
  C   -8.558685   -2.506352    0.262864
  C  -13.327072    5.795194   -0.580021
  C   -8.425742   -3.844294    0.371538
  C  -14.514260    6.356273   -0.673105
  N   -7.346884   -4.520306    0.464928
  C   -7.442699   -5.999699    0.578571
  C   -6.033551   -3.834702    0.454869
  N  -15.558013    6.851435   -0.755183
  H  -10.770266    5.425285   -0.446573
  H   -8.782230    4.228494   -0.272243
  H   -7.618039    2.212672   -0.067112
  H   -7.552800   -0.082681    0.114843
  H  -11.005721   -3.467349    0.242343
  H  -12.984395   -2.269626    0.070798
  H  -14.147557   -0.254725   -0.133500
  H  -14.209793    2.046062   -0.316906
  H  -14.186175    3.967264   -0.470198
  H   -7.596273   -1.985154    0.261082
  H  -12.477185    6.491298   -0.600600
  H   -9.317114   -4.483232    0.385017
  H   -8.470135   -6.393608    0.741180
  H   -7.037271   -6.466497   -0.347885
  H   -6.826356   -6.344051    1.439976
  H   -5.869588   -3.281939   -0.498060
  H   -5.921798   -3.158665    1.332994
  H   -5.214433   -4.585363    0.525740
*
