44
Energy =
C     0.1831583    0.3989963    2.4070395 
C    -0.7996346   -1.6061604    1.6385843 
C    -1.0060351   -2.0263831    2.9178942 
C     0.0015253    0.0306500    3.7071262 
C    -0.6155069   -1.2294064    4.0584530 
C    -0.8366938   -1.6836374    5.3608378 
C    -0.5046429   -1.0040624    6.5504311 
C     0.4018446    0.8747185   11.6200286 
C    -0.2494215   -0.4987003   11.4856474 
C    -0.4720444   -0.9780246   12.7760192 
C    -0.0026344    0.0058659   13.7245214 
C     0.0076405    0.0159284   15.1103285 
C     0.0036887    0.0068447   -0.0303141 
N    -0.2064700   -0.3956698    1.3554325 
C     1.8386480    0.9280780   11.0885206 
C    -0.4696363    2.0208529   11.0942052 
O     0.4935730    1.0593238   13.0627959 
C    -1.0668999   -2.2378285   13.0568034 
C    -0.5002202   -1.0627663   15.8951614 
C     0.5466575    1.1462534   15.8002979 
N    -1.5599442   -3.2826250   13.1881489 
N    -0.9025714   -1.9180358   16.5727644 
N     0.9828689    2.0601102   16.3722444 
C    -0.7295152   -1.4749535    7.8327045 
C    -0.3760711   -0.7490906    8.9939445 
C    -0.5805921   -1.1840261   10.2905169 
H     0.6494628    1.3482584    2.1366874 
H    -1.0933857   -2.2056616    0.7745743 
H    -1.4818432   -2.9961090    3.0782631 
H     0.3394540    0.7207501    4.4805241 
H    -1.3143815   -2.6637078    5.4639892 
H    -0.0278828   -0.0193140    6.4683526 
H     0.4630363    1.0030907   -0.0552519 
H     0.6734635   -0.6993670   -0.5480296 
H    -0.9534959    0.0501153   -0.5745917 
H     1.8613479    0.8435017    9.9928079 
H     2.2998621    1.8842602   11.3784045 
H     2.4373910    0.1086710   11.5128498 
H    -0.5523045    1.9871053    9.9988096 
H    -1.4815585    1.9625165   11.5210395 
H    -0.0221743    2.9827397   11.3860325 
H    -1.2030995   -2.4554158    7.9616891 
H     0.0928912    0.2261906    8.8248715 
H    -1.0496439   -2.1646465   10.4270602 
