! B3LYP def2-SVP Opt PAL8 FREQ defgrid3 slowconv VeryTightSCF
*xyz 0 1
 C        -7.228155        3.035785       -0.283960
 C        -5.971928        3.680617       -0.284338
 C        -4.785316        2.977870       -0.183455
 C        -4.786514        1.571783       -0.075141
 C        -3.572392        0.822771        0.028747
 C        -3.582064       -0.539618        0.133003
 C        -4.803258       -1.295232        0.145055
 C        -4.823718       -2.726475        0.253467
 C        -6.087325       -3.363989        0.251711
 C        -7.274096       -2.659421        0.156389
 C        -7.282622       -1.254901        0.049548
 C        -8.495321       -0.506578       -0.053486
 C        -8.492498        0.855855       -0.159878
 C        -7.267398        1.606992       -0.173355
 C        -6.033008        0.872058       -0.068902
 C        -6.035673       -0.560563        0.042211
 C        -8.457037        3.814742       -0.394545
 C        -3.591550       -3.497291        0.374274
 C        -8.569518        5.163746       -0.507940
 C        -3.496662       -4.849423        0.492188
 C        -9.833447        5.814771       -0.609706
 N        -2.333507       -5.571596        0.469422
 N       -10.857094        6.362132       -0.693725
 H        -5.928074        4.768302       -0.366184
 H        -3.830752        3.510841       -0.187068
 H        -2.623204        1.365695        0.022079
 H        -2.626345       -1.057752        0.206588
 H        -6.140596       -4.451974        0.325657
 H        -8.226691       -3.197052        0.160689
 H        -9.444681       -1.049880       -0.045922
 H        -9.449552        1.371014       -0.234877
 H        -9.396788        3.260582       -0.386461
 H        -2.647644       -2.948149        0.368714
 H        -7.696838        5.822560       -0.526836
 H        -4.392509       -5.476990        0.510627
 H        -2.370078       -6.524207        1.225634
 H        -1.447795       -5.079098        0.888239
*
