37
Coordinates from ORCA-job NC_NH2_3 E -916.917866271600
  C      -7.228155      3.035785     -0.283960
  C      -5.971928      3.680617     -0.284338
  C      -4.785316      2.977870     -0.183455
  C      -4.786514      1.571783     -0.075141
  C      -3.572392      0.822771      0.028747
  C      -3.582064     -0.539618      0.133003
  C      -4.803258     -1.295232      0.145055
  C      -4.823718     -2.726475      0.253467
  C      -6.087325     -3.363989      0.251711
  C      -7.274096     -2.659421      0.156389
  C      -7.282622     -1.254901      0.049548
  C      -8.495321     -0.506578     -0.053486
  C      -8.492498      0.855855     -0.159878
  C      -7.267398      1.606992     -0.173355
  C      -6.033008      0.872058     -0.068902
  C      -6.035673     -0.560563      0.042211
  C      -8.457037      3.814742     -0.394545
  C      -3.591550     -3.497291      0.374274
  C      -8.569518      5.163746     -0.507940
  C      -3.496662     -4.849423      0.492188
  C      -9.833447      5.814771     -0.609706
  N      -2.333507     -5.571596      0.469422
  N     -10.857094      6.362132     -0.693725
  H      -5.928074      4.768302     -0.366184
  H      -3.830752      3.510841     -0.187068
  H      -2.623204      1.365695      0.022079
  H      -2.626345     -1.057752      0.206588
  H      -6.140596     -4.451974      0.325657
  H      -8.226691     -3.197052      0.160689
  H      -9.444681     -1.049880     -0.045922
  H      -9.449552      1.371014     -0.234877
  H      -9.396788      3.260582     -0.386461
  H      -2.647644     -2.948149      0.368714
  H      -7.696838      5.822560     -0.526836
  H      -4.392509     -5.476990      0.510627
  H      -2.370078     -6.524207      1.225634
  H      -1.447795     -5.079098      0.888239
37
Coordinates from ORCA-job NC_NH2_3 E -916.940484375542
  C      -7.226055      3.032994     -0.285014
  C      -5.969575      3.677197     -0.284488
  C      -4.783398      2.973806     -0.181363
  C      -4.785575      1.568003     -0.071560
  C      -3.571787      0.818438      0.034742
  C      -3.582176     -0.543629      0.140553
  C      -4.804292     -1.298482      0.151773
  C      -4.826591     -2.728894      0.261984
  C      -6.089534     -3.366239      0.258654
  C      -7.276112     -2.661342      0.160367
  C      -7.283309     -1.257064      0.052279
  C      -8.495779     -0.508174     -0.053400
  C      -8.491747      0.853952     -0.160956
  C      -7.266093      1.604525     -0.173186
  C      -6.032397      0.869138     -0.066303
  C      -6.036083     -0.563193      0.046220
  C      -8.454570      3.812568     -0.397747
  C      -3.593531     -3.501064      0.385077
  C      -8.566063      5.161337     -0.512359
  C      -3.496849     -4.850661      0.505352
  C      -9.829490      5.813031     -0.616087
  N      -2.322362     -5.576213      0.483845
  N     -10.852476      6.361197     -0.701723
  H      -5.925063      4.764744     -0.367451
  H      -3.828544      3.506202     -0.184339
  H      -2.622378      1.360898      0.028743
  H      -2.626880     -1.062200      0.216086
  H      -6.142810     -4.453975      0.333610
  H      -8.228906     -3.198469      0.163479
  H      -9.445364     -1.050958     -0.046919
  H      -9.448337      1.369594     -0.238021
  H      -9.394651      3.259031     -0.390330
  H      -2.649685     -2.951776      0.378704
  H      -7.692961      5.819653     -0.530899
  H      -4.392792     -5.478916      0.526190
  H      -2.357893     -6.422566      1.143061
  H      -1.489539     -5.084564      0.859888
37
Coordinates from ORCA-job NC_NH2_3 E -916.942784908302
  C      -7.224466      3.031100     -0.285870
  C      -5.967668      3.674541     -0.285255
  C      -4.781937      2.970294     -0.181047
  C      -4.785204      1.564743     -0.070073
  C      -3.571748      0.814441      0.037869
  C      -3.582813     -0.547297      0.145389
  C      -4.805953     -1.301402      0.156279
  C      -4.830616     -2.730781      0.268720
  C      -6.092594     -3.368060      0.262837
  C      -7.279032     -2.662747      0.160713
  C      -7.284590     -1.258737      0.052163
  C      -8.496876     -0.509097     -0.056045
  C      -8.491580      0.852793     -0.163790
  C      -7.265357      1.602852     -0.173990
  C      -6.032401      0.866822     -0.065527
  C      -6.037116     -0.565340      0.047768
  C      -8.452659      3.811615     -0.398591
  C      -3.596767     -3.506026      0.388983
  C      -8.563062      5.160359     -0.512734
  C      -3.499091     -4.851738      0.517796
  C      -9.826010      5.813123     -0.616155
  N      -2.313620     -5.579722      0.526597
  N     -10.848270      6.362619     -0.701563
  H      -5.922405      4.761980     -0.369038
  H      -3.826727      3.502031     -0.183951
  H      -2.622090      1.356444      0.032060
  H      -2.627980     -1.066322      0.222628
  H      -6.145635     -4.455775      0.337738
  H      -8.232082     -3.199325      0.161512
  H      -9.446671     -1.051439     -0.051362
  H      -9.447685      1.369007     -0.242994
  H      -9.393154      3.258818     -0.391398
  H      -2.652620     -2.957113      0.374356
  H      -7.689476      5.818052     -0.531376
  H      -4.394303     -5.481004      0.544634
  H      -2.353942     -6.373224      1.080012
  H      -1.497449     -5.058559      0.831166
37
Coordinates from ORCA-job NC_NH2_3 E -916.945565669178
  C      -7.225089      3.031980     -0.285957
  C      -5.968427      3.675689     -0.285453
  C      -4.782525      2.971629     -0.181823
  C      -4.785504      1.566050     -0.071261
  C      -3.571877      0.815989      0.036660
  C      -3.582610     -0.545749      0.144096
  C      -4.805600     -1.300135      0.154478
  C      -4.830218     -2.729388      0.267367
  C      -6.091900     -3.367142      0.260602
  C      -7.278478     -2.662162      0.157281
  C      -7.284187     -1.258136      0.049132
  C      -8.496656     -0.508747     -0.059464
  C      -8.491657      0.853204     -0.166285
  C      -7.265638      1.603648     -0.175231
  C      -6.032537      0.867853     -0.067028
  C      -6.036916     -0.564362      0.045660
  C      -8.453515      3.812376     -0.397173
  C      -3.596286     -3.504715      0.386926
  C      -8.564231      5.161233     -0.509642
  C      -3.498634     -4.849785      0.522518
  C      -9.827360      5.813919     -0.611397
  N      -2.314179     -5.576916      0.537256
  N     -10.849697      6.363488     -0.695439
  H      -5.923399      4.763164     -0.368855
  H      -3.827428      3.503568     -0.184764
  H      -2.622368      1.358257      0.031179
  H      -2.627695     -1.064559      0.221871
  H      -6.144550     -4.454880      0.335446
  H      -8.231388     -3.198974      0.157072
  H      -9.446269     -1.051406     -0.055807
  H      -9.447844      1.369200     -0.245932
  H      -9.393901      3.259395     -0.390001
  H      -2.652065     -2.956079      0.365053
  H      -7.690785      5.819118     -0.528190
  H      -4.393474     -5.479156      0.557973
  H      -2.353064     -6.421169      1.110902
  H      -1.493698     -5.048372      0.806693
37
Coordinates from ORCA-job NC_NH2_3 E -916.946104520009
  C      -7.224894      3.031809     -0.286337
  C      -5.968199      3.675477     -0.285176
  C      -4.782367      2.971288     -0.181556
  C      -4.785490      1.565649     -0.071631
  C      -3.571962      0.815543      0.037299
  C      -3.582726     -0.546236      0.144207
  C      -4.805679     -1.300695      0.152408
  C      -4.830735     -2.729906      0.264672
  C      -6.092359     -3.367728      0.258166
  C      -7.278900     -2.662622      0.154291
  C      -7.284215     -1.258634      0.045846
  C      -8.496630     -0.509139     -0.063616
  C      -8.491550      0.852865     -0.169658
  C      -7.265538      1.603377     -0.176976
  C      -6.032532      0.867467     -0.068542
  C      -6.036960     -0.564840      0.043394
  C      -8.453276      3.812456     -0.396359
  C      -3.597342     -3.505724      0.385818
  C      -8.563888      5.161504     -0.506862
  C      -3.500920     -4.849564      0.535828
  C      -9.826964      5.814522     -0.607271
  N      -2.319264     -5.575179      0.556712
  N     -10.849102      6.364654     -0.690207
  H      -5.923079      4.763000     -0.367951
  H      -3.827250      3.503205     -0.183883
  H      -2.622503      1.357934      0.033322
  H      -2.627938     -1.065037      0.223754
  H      -6.144860     -4.455508      0.332858
  H      -8.231876     -3.199325      0.153243
  H      -9.446194     -1.051904     -0.061181
  H      -9.447654      1.368916     -0.250072
  H      -9.393711      3.259547     -0.389590
  H      -2.652714     -2.958192      0.351020
  H      -7.690414      5.819361     -0.524723
  H      -4.395435     -5.478000      0.587267
  H      -2.352398     -6.427648      1.114248
  H      -1.484129     -5.034768      0.775698
37
Coordinates from ORCA-job NC_NH2_3 E -916.946565851701
  C      -7.224923      3.031839     -0.286476
  C      -5.968298      3.675740     -0.283489
  C      -4.782503      2.971725     -0.178684
  C      -4.785573      1.565955     -0.069473
  C      -3.572154      0.816142      0.042198
  C      -3.582761     -0.545781      0.148102
  C      -4.805264     -1.300678      0.151601
  C      -4.830261     -2.730147      0.261985
  C      -6.091980     -3.368356      0.253506
  C      -7.278542     -2.663154      0.150153
  C      -7.283728     -1.259068      0.042373
  C      -8.496077     -0.509756     -0.069153
  C      -8.491272      0.852358     -0.174391
  C      -7.265500      1.603234     -0.178704
  C      -6.032472      0.867436     -0.069047
  C      -6.036636     -0.565048      0.041660
  C      -8.453238      3.812475     -0.396362
  C      -3.597745     -3.506456      0.381168
  C      -8.564009      5.161742     -0.504999
  C      -3.503257     -4.847580      0.564290
  C      -9.827047      5.814826     -0.605354
  N      -2.329820     -5.572456      0.586544
  N     -10.848862      6.365629     -0.688247
  H      -5.923239      4.763323     -0.365624
  H      -3.827493      3.503858     -0.179421
  H      -2.622945      1.359026      0.041877
  H      -2.628160     -1.064311      0.232117
  H      -6.143935     -4.456533      0.323042
  H      -8.231454     -3.199996      0.146084
  H      -9.445402     -1.052988     -0.069196
  H      -9.447329      1.368221     -0.256770
  H      -9.393594      3.259396     -0.390879
  H      -2.652654     -2.962542      0.313853
  H      -7.690677      5.819815     -0.521372
  H      -4.397708     -5.471035      0.658320
  H      -2.346702     -6.436676      1.116506
  H      -1.478434     -5.032253      0.700721
37
Coordinates from ORCA-job NC_NH2_3 E -916.946742221498
  C      -7.225181      3.032055     -0.285988
  C      -5.968573      3.676100     -0.281018
  C      -4.782819      2.972207     -0.175763
  C      -4.785792      1.566201     -0.068361
  C      -3.572521      0.816605      0.045379
  C      -3.583170     -0.545572      0.149330
  C      -4.805183     -1.300764      0.147436
  C      -4.829430     -2.730762      0.254710
  C      -6.091575     -3.369037      0.244735
  C      -7.278148     -2.663640      0.144143
  C      -7.283674     -1.259307      0.038140
  C      -8.495900     -0.510065     -0.073292
  C      -8.491366      0.852226     -0.177462
  C      -7.265745      1.603224     -0.180222
  C      -6.032616      0.867413     -0.070609
  C      -6.036613     -0.565264      0.038023
  C      -8.453371      3.812693     -0.395500
  C      -3.597530     -3.506700      0.370771
  C      -8.564381      5.162175     -0.502199
  C      -3.504423     -4.843645      0.591080
  C      -9.827410      5.815240     -0.602316
  N      -2.338571     -5.571477      0.608912
  N     -10.849052      6.366438     -0.685001
  H      -5.923601      4.763813     -0.361581
  H      -3.827909      3.504523     -0.174466
  H      -2.623519      1.359849      0.049234
  H      -2.628837     -1.064014      0.237590
  H      -6.143079     -4.457719      0.306757
  H      -8.230982     -3.200652      0.138090
  H      -9.445130     -1.053506     -0.074247
  H      -9.447441      1.368043     -0.259924
  H      -9.393645      3.259443     -0.391340
  H      -2.652390     -2.968308      0.268530
  H      -7.691185      5.820465     -0.516983
  H      -4.399455     -5.457780      0.730937
  H      -2.340824     -6.437936      1.131878
  H      -1.470609     -5.044637      0.649059
37
Coordinates from ORCA-job NC_NH2_3 E -916.946941300572
  C      -7.225677      3.032264     -0.283627
  C      -5.969080      3.676505     -0.275148
  C      -4.783372      2.972756     -0.169809
  C      -4.786114      1.566281     -0.066558
  C      -3.573062      0.816960      0.050111
  C      -3.583883     -0.545747      0.149391
  C      -4.805192     -1.301202      0.137165
  C      -4.827858     -2.732160      0.236774
  C      -6.090466     -3.370624      0.223823
  C      -7.277296     -2.664892      0.130298
  C      -7.283738     -1.260022      0.029307
  C      -8.495806     -0.510774     -0.080368
  C      -8.491632      0.851884     -0.181657
  C      -7.266195      1.603037     -0.181954
  C      -6.032863      0.867151     -0.073565
  C      -6.036673     -0.565881      0.030107
  C      -8.453670      3.812928     -0.392338
  C      -3.596590     -3.507636      0.343474
  C      -8.565131      5.162750     -0.495504
  C      -3.503955     -4.831116      0.641037
  C      -9.828170      5.815716     -0.595266
  N      -2.351012     -5.569041      0.650051
  N     -10.849598      6.367414     -0.677625
  H      -5.924306      4.764479     -0.352436
  H      -3.828623      3.505344     -0.164828
  H      -2.624426      1.360733      0.061968
  H      -2.630274     -1.064399      0.245217
  H      -6.140640     -4.460335      0.268940
  H      -8.229890     -3.202348      0.120328
  H      -9.444972     -1.054378     -0.082524
  H      -9.447774      1.367725     -0.263114
  H      -9.393800      3.259391     -0.390789
  H      -2.653564     -2.984720      0.167236
  H      -7.692155      5.821397     -0.507475
  H      -4.397234     -5.419651      0.872840
  H      -2.331264     -6.431882      1.176078
  H      -1.465692     -5.079979      0.568901
37
Coordinates from ORCA-job NC_NH2_3 E -916.947041654709
  C      -7.225984      3.031892     -0.280152
  C      -5.969285      3.676090     -0.268245
  C      -4.783709      2.972241     -0.163034
  C      -4.786395      1.565329     -0.064260
  C      -3.573571      0.815948      0.054863
  C      -3.584825     -0.547310      0.148600
  C      -4.805933     -1.302214      0.125689
  C      -4.827184     -2.733709      0.215461
  C      -6.089430     -3.372872      0.200170
  C      -7.277023     -2.666818      0.115466
  C      -7.284390     -1.261462      0.020588
  C      -8.496372     -0.511821     -0.086232
  C      -8.492129      0.851170     -0.184164
  C      -7.266657      1.602376     -0.182515
  C      -6.033281      0.866276     -0.075899
  C      -6.037272     -0.567038      0.022071
  C      -8.453697      3.812855     -0.388355
  C      -3.595880     -3.509350      0.309568
  C      -8.565175      5.162950     -0.488416
  C      -3.500767     -4.812378      0.687980
  C      -9.828053      5.816121     -0.588345
  N      -2.359757     -5.564570      0.688776
  N     -10.849207      6.368330     -0.670795
  H      -5.924554      4.764304     -0.342263
  H      -3.829025      3.504903     -0.154484
  H      -2.625223      1.359977      0.075016
  H      -2.632473     -1.067243      0.251787
  H      -6.137120     -4.463519      0.227417
  H      -8.229329     -3.204763      0.101751
  H      -9.445671     -1.055213     -0.089226
  H      -9.448294      1.367236     -0.263846
  H      -9.393834      3.259311     -0.389515
  H      -2.659048     -3.008009      0.053370
  H      -7.692195      5.821647     -0.497683
  H      -4.387718     -5.366212      1.012057
  H      -2.323522     -6.416226      1.231445
  H      -1.467666     -5.120301      0.503818
37
Coordinates from ORCA-job NC_NH2_3 E -916.947072674182
  C      -7.225980      3.031368     -0.278521
  C      -5.969209      3.675518     -0.265547
  C      -4.783636      2.971539     -0.161129
  C      -4.786244      1.564458     -0.064562
  C      -3.573372      0.814933      0.054875
  C      -3.584835     -0.548543      0.146023
  C      -4.806346     -1.302557      0.119282
  C      -4.827087     -2.733773      0.204457
  C      -6.088242     -3.374072      0.188998
  C      -7.276732     -2.668093      0.108128
  C      -7.284551     -1.262680      0.015916
  C      -8.496685     -0.512637     -0.088905
  C      -8.492219      0.850445     -0.184974
  C      -7.266664      1.601821     -0.182943
  C      -6.033322      0.865673     -0.077778
  C      -6.037540     -0.567677      0.017500
  C      -8.453702      3.812557     -0.385681
  C      -3.595018     -3.509862      0.293524
  C      -8.565063      5.162770     -0.483764
  C      -3.499983     -4.802589      0.704126
  C      -9.827900      5.816185     -0.582784
  N      -2.363123     -5.563015      0.705180
  N     -10.849031      6.368530     -0.664454
  H      -5.924501      4.763840     -0.337910
  H      -3.828972      3.504216     -0.151360
  H      -2.625128      1.359019      0.078207
  H      -2.633490     -1.070119      0.251531
  H      -6.133475     -4.465067      0.210949
  H      -8.228849     -3.206363      0.093798
  H      -9.446135     -1.055747     -0.091832
  H      -9.448431      1.366669     -0.263162
  H      -9.393881      3.259083     -0.387770
  H      -2.661703     -3.018602      0.005329
  H      -7.692009      5.821386     -0.491929
  H      -4.384910     -5.340029      1.060142
  H      -2.324067     -6.405427      1.262626
  H      -1.469614     -5.135230      0.492877
37
Coordinates from ORCA-job NC_NH2_3 E -916.947102876690
  C      -7.225838      3.030697     -0.276603
  C      -5.968972      3.674743     -0.263155
  C      -4.783396      2.970545     -0.159841
  C      -4.785928      1.563353     -0.065145
  C      -3.572889      0.813644      0.053639
  C      -3.584464     -0.549972      0.142422
  C      -4.806788     -1.302833      0.113420
  C      -4.827387     -2.733530      0.194887
  C      -6.087016     -3.375356      0.179428
  C      -7.276562     -2.669446      0.101675
  C      -7.284597     -1.264169      0.011994
  C      -8.496976     -0.513525     -0.090859
  C      -8.492148      0.849562     -0.184974
  C      -7.266506      1.601237     -0.182712
  C      -6.033281      0.865034     -0.079130
  C      -6.037832     -0.568305      0.013754
  C      -8.453646      3.812135     -0.382746
  C      -3.593692     -3.510491      0.279182
  C      -8.564731      5.162420     -0.479130
  C      -3.499863     -4.794396      0.713984
  C      -9.827503      5.816149     -0.577409
  N      -2.366345     -5.563300      0.715569
  N     -10.848686      6.368457     -0.658431
  H      -5.924217      4.763135     -0.334284
  H      -3.828726      3.503207     -0.149557
  H      -2.624736      1.357818      0.078871
  H      -2.634472     -1.073938      0.248654
  H      -6.129165     -4.466529      0.198121
  H      -8.228514     -3.207979      0.086918
  H      -9.446630     -1.056246     -0.093828
  H      -9.448401      1.365964     -0.261689
  H      -9.393881      3.258762     -0.385637
  H      -2.664017     -3.027054     -0.033868
  H      -7.691534      5.820852     -0.486436
  H      -4.383947     -5.318554      1.091193
  H      -2.326915     -6.391438      1.294944
  H      -1.471446     -5.142728      0.495243
37
Coordinates from ORCA-job NC_NH2_3 E -916.947130676393
  C      -7.225474      3.029893     -0.274819
  C      -5.968459      3.673702     -0.260865
  C      -4.782969      2.969106     -0.158914
  C      -4.785565      1.561785     -0.066356
  C      -3.572422      0.811825      0.051340
  C      -3.584070     -0.551874      0.137721
  C      -4.807258     -1.303751      0.106846
  C      -4.828179     -2.734087      0.185292
  C      -6.086613     -3.377069      0.169961
  C      -7.276878     -2.670932      0.094918
  C      -7.284703     -1.265872      0.007533
  C      -8.497245     -0.514448     -0.093394
  C      -8.491982      0.848617     -0.185460
  C      -7.266232      1.600506     -0.182939
  C      -6.033209      0.864048     -0.081086
  C      -6.038165     -0.569338      0.009358
  C      -8.453326      3.811718     -0.379506
  C      -3.592806     -3.512084      0.265919
  C      -8.563984      5.162138     -0.473478
  C      -3.499483     -4.787574      0.722676
  C      -9.826642      5.816356     -0.570600
  N      -2.369655     -5.564604      0.722593
  N     -10.847898      6.368641     -0.650617
  H      -5.923496      4.762174     -0.330490
  H      -3.828249      3.501678     -0.148102
  H      -2.624380      1.356146      0.078033
  H      -2.635518     -1.078342      0.244055
  H      -6.126178     -4.468311      0.185694
  H      -8.228817     -3.209448      0.079611
  H      -9.447144     -1.056721     -0.096492
  H      -9.448229      1.365300     -0.260635
  H      -9.393639      3.258492     -0.383368
  H      -2.667251     -3.035277     -0.068908
  H      -7.690588      5.820310     -0.479569
  H      -4.382025     -5.299889      1.119139
  H      -2.328098     -6.370887      1.332519
  H      -1.474819     -5.144000      0.500852
37
Coordinates from ORCA-job NC_NH2_3 E -916.947150518663
  C      -7.224938      3.029122     -0.273343
  C      -5.967731      3.672599     -0.258840
  C      -4.782420      2.967525     -0.158040
  C      -4.785270      1.560074     -0.067389
  C      -3.572166      0.809806      0.049304
  C      -3.583938     -0.553929      0.133774
  C      -4.807679     -1.305225      0.101524
  C      -4.829206     -2.735482      0.177758
  C      -6.087151     -3.378857      0.162065
  C      -7.277598     -2.672270      0.089001
  C      -7.284931     -1.267334      0.003510
  C      -8.497461     -0.515210     -0.096083
  C      -8.491831      0.847853     -0.186424
  C      -7.265947      1.599748     -0.183343
  C      -6.033149      0.862868     -0.082859
  C      -6.038469     -0.570618      0.005565
  C      -8.452720      3.811371     -0.376765
  C      -3.593074     -3.514375      0.255983
  C      -8.562932      5.161964     -0.468201
  C      -3.498924     -4.783098      0.730188
  C      -9.825426      5.816691     -0.564418
  N      -2.372802     -5.567041      0.724577
  N     -10.846721      6.369001     -0.643635
  H      -5.922421      4.761135     -0.327129
  H      -3.827611      3.499933     -0.146719
  H      -2.624214      1.354253      0.076984
  H      -2.636414     -1.082233      0.240001
  H      -6.125369     -4.470161      0.174790
  H      -8.229664     -3.210528      0.072898
  H      -9.447546     -1.057149     -0.099601
  H      -9.447996      1.364861     -0.260597
  H      -9.393104      3.258280     -0.381865
  H      -2.671345     -3.042700     -0.096271
  H      -7.689346      5.819889     -0.472785
  H      -4.378935     -5.285788      1.144440
  H      -2.324868     -6.346266      1.368674
  H      -1.480330     -5.140784      0.501734
37
Coordinates from ORCA-job NC_NH2_3 E -916.947158047726
  C      -7.224680      3.028913     -0.273235
  C      -5.967381      3.672227     -0.258347
  C      -4.782193      2.966971     -0.157646
  C      -4.785275      1.559470     -0.067489
  C      -3.572325      0.809044      0.049277
  C      -3.584266     -0.554703      0.133425
  C      -4.807850     -1.306085      0.100525
  C      -4.829606     -2.736517      0.176367
  C      -6.087977     -3.379415      0.160188
  C      -7.278119     -2.672582      0.087395
  C      -7.285198     -1.267544      0.002267
  C      -8.497568     -0.515323     -0.097353
  C      -8.491886      0.847785     -0.187377
  C      -7.265914      1.599469     -0.183846
  C      -6.033189      0.862348     -0.083428
  C      -6.038592     -0.571198      0.004561
  C      -8.452326      3.811335     -0.376364
  C      -3.594169     -3.515496      0.254777
  C      -8.562424      5.162032     -0.466669
  C      -3.498543     -4.782659      0.733582
  C      -9.824828      5.816930     -0.562731
  N      -2.373636     -5.567924      0.723522
  N     -10.846065      6.369376     -0.641799
  H      -5.921883      4.760782     -0.326243
  H      -3.827328      3.499272     -0.145993
  H      -2.624366      1.353459      0.077328
  H      -2.636673     -1.082892      0.239973
  H      -6.126721     -4.470754      0.171537
  H      -8.230301     -3.210631      0.070852
  H      -9.447651     -1.057275     -0.101204
  H      -9.447961      1.364936     -0.261635
  H      -9.392726      3.258283     -0.382193
  H      -2.673379     -3.045334     -0.102074
  H      -7.688804      5.819917     -0.470359
  H      -4.376755     -5.282655      1.155169
  H      -2.319259     -6.336440      1.379864
  H      -1.483829     -5.139195      0.493839
37
Coordinates from ORCA-job NC_NH2_3 E -916.947161740128
  C      -7.224562      3.028926     -0.273688
  C      -5.967237      3.672186     -0.258662
  C      -4.782103      2.966921     -0.157642
  C      -4.785349      1.559426     -0.067226
  C      -3.572538      0.808919      0.049924
  C      -3.584661     -0.554835      0.134498
  C      -4.807900     -1.306437      0.101646
  C      -4.829644     -2.737011      0.177888
  C      -6.088572     -3.379316      0.161310
  C      -7.278390     -2.672442      0.087975
  C      -7.285413     -1.267239      0.002500
  C      -8.497621     -0.515189     -0.097675
  C      -8.492001      0.847970     -0.188005
  C      -7.265960      1.599410     -0.184186
  C      -6.033230      0.862204     -0.083322
  C      -6.038607     -0.571350      0.005010
  C      -8.452088      3.811384     -0.377022
  C      -3.595282     -3.515795      0.257587
  C      -8.562234      5.162135     -0.466848
  C      -3.498792     -4.784267      0.733571
  C      -9.824593      5.817033     -0.563190
  N      -2.373565     -5.568631      0.720127
  N     -10.845733      6.369636     -0.642477
  H      -5.921670      4.760729     -0.326749
  H      -3.827210      3.499162     -0.145922
  H      -2.624512      1.353210      0.077865
  H      -2.636570     -1.082209      0.241272
  H      -6.128253     -4.470681      0.172669
  H      -8.230631     -3.210393      0.071344
  H      -9.447622     -1.057291     -0.101734
  H      -9.448001      1.365163     -0.262752
  H      -9.392478      3.258322     -0.383413
  H      -2.673702     -3.045070     -0.096793
  H      -7.688655      5.820084     -0.469870
  H      -4.376574     -5.285429      1.154972
  H      -2.313651     -6.333553      1.380218
  H      -1.486040     -5.137755      0.485266
37
Coordinates from ORCA-job NC_NH2_3 E -916.947162245952
  C      -7.224528      3.028884     -0.273779
  C      -5.967193      3.672112     -0.258684
  C      -4.782071      2.966838     -0.157569
  C      -4.785366      1.559348     -0.067128
  C      -3.572594      0.808786      0.050173
  C      -3.584828     -0.554992      0.134739
  C      -4.808046     -1.306524      0.101686
  C      -4.829733     -2.737079      0.177896
  C      -6.088711     -3.379322      0.161174
  C      -7.278529     -2.672459      0.087864
  C      -7.285575     -1.267213      0.002438
  C      -8.497740     -0.515174     -0.097802
  C      -8.492072      0.848002     -0.188138
  C      -7.265987      1.599357     -0.184271
  C      -6.033271      0.862133     -0.083320
  C      -6.038705     -0.571408      0.005010
  C      -8.452013      3.811385     -0.377197
  C      -3.595540     -3.515875      0.257693
  C      -8.562158      5.162161     -0.466650
  C      -3.498846     -4.784122      0.734218
  C      -9.824487      5.817085     -0.563156
  N      -2.373608     -5.568551      0.720135
  N     -10.845556      6.369802     -0.642570
  H      -5.921615      4.760652     -0.326830
  H      -3.827161      3.499046     -0.145804
  H      -2.624525      1.352986      0.078268
  H      -2.636650     -1.082183      0.241716
  H      -6.128447     -4.470691      0.172278
  H      -8.230765     -3.210414      0.071133
  H      -9.447739     -1.057276     -0.101886
  H      -9.448046      1.365232     -0.262918
  H      -9.392412      3.258342     -0.383999
  H      -2.673843     -3.045705     -0.097221
  H      -7.688588      5.820125     -0.469203
  H      -4.376504     -5.284782      1.156469
  H      -2.311604     -6.332157      1.381627
  H      -1.486594     -5.138422      0.482073
