37
Coordinates from ORCA-job NC_NH2_2 E -916.946577018177
  C      -7.228982      3.036029     -0.277960
  C      -5.972786      3.680575     -0.277902
  C      -4.786362      2.977780     -0.177035
  C      -4.787438      1.571841     -0.069510
  C      -3.573387      0.822703      0.032386
  C      -3.582866     -0.539693      0.134815
  C      -4.804009     -1.295394      0.147072
  C      -4.824138     -2.726834      0.253867
  C      -6.087866     -3.363979      0.256340
  C      -7.274579     -2.659416      0.161335
  C      -7.283456     -1.255001      0.054658
  C      -8.496149     -0.506473     -0.045897
  C      -8.493540      0.855952     -0.151446
  C      -7.268445      1.607197     -0.165709
  C      -6.033981      0.872168     -0.062459
  C      -6.036583     -0.560608      0.046824
  C      -8.457296      3.815273     -0.394704
  C      -3.590814     -3.498729      0.356104
  C      -8.567885      5.163771     -0.514902
  C      -3.494606     -4.851694      0.461988
  C      -9.830733      5.815426     -0.627826
  N      -2.334995     -5.563795      0.556666
  N     -10.853578      6.362725     -0.721048
  H      -5.928726      4.768210     -0.360620
  H      -3.831773      3.510692     -0.181387
  H      -2.624151      1.365553      0.026115
  H      -2.627120     -1.057524      0.209182
  H      -6.141294     -4.451568      0.335675
  H      -8.227241     -3.196917      0.168210
  H      -9.445614     -1.049607     -0.037410
  H      -9.450715      1.370937     -0.225379
  H      -9.397432      3.261837     -0.388677
  H      -2.647046     -2.949559      0.347841
  H      -7.694379      5.821454     -0.533768
  H      -4.389807     -5.480207      0.478173
  H      -2.346106     -6.569613      0.632952
  H      -1.434309     -5.103511      0.553438
37
Coordinates from ORCA-job NC_NH2_2 E -916.946580107632
  C      -7.228152      3.035781     -0.284025
  C      -5.971927      3.680616     -0.284341
  C      -4.785312      2.977863     -0.183536
  C      -4.786504      1.571762     -0.075393
  C      -3.572404      0.822794      0.029079
  C      -3.582086     -0.539581      0.133537
  C      -4.803261     -1.295231      0.145087
  C      -4.823748     -2.726413      0.254315
  C      -6.087506     -3.363616      0.256531
  C      -7.274167     -2.659273      0.158289
  C      -7.282613     -1.254923      0.049244
  C      -8.495314     -0.506593     -0.053696
  C      -8.492493      0.855844     -0.160048
  C      -7.267391      1.606977     -0.173555
  C      -6.032997      0.872033     -0.069212
  C      -6.035662     -0.560589      0.041887
  C      -8.457036      3.814744     -0.394531
  C      -3.590994     -3.498456      0.359130
  C      -8.569520      5.163749     -0.507918
  C      -3.495758     -4.851328      0.467623
  C      -9.833447      5.814771     -0.609695
  N      -2.336970     -5.564149      0.564872
  N     -10.857091      6.362125     -0.693801
  H      -5.928082      4.768321     -0.365935
  H      -3.830760      3.510857     -0.186848
  H      -2.623272      1.365831      0.023882
  H      -2.626489     -1.057480      0.210235
  H      -6.141069     -4.451017      0.338082
  H      -8.226842     -3.196739      0.164720
  H      -9.444689     -1.049862     -0.045708
  H      -9.449556      1.371022     -0.234800
  H      -9.396789      3.260588     -0.386389
  H      -2.646987     -2.949533      0.350676
  H      -7.696842      5.822568     -0.526749
  H      -4.391530     -5.479051      0.484063
  H      -2.349040     -6.569778      0.643108
  H      -1.435884     -5.104632      0.561821
