37
Coordinates from ORCA-job NC_NH2 E -916.799159054519
  C      -7.199556      2.891050     -0.273112
  C      -5.999033      3.503018     -0.275407
  C      -4.853203      2.821243     -0.179132
  C      -4.876439      1.486113     -0.076048
  C      -3.720107      0.816780      0.020158
  C      -3.718767     -0.516741      0.124185
  C      -4.857825     -1.237788      0.136850
  C      -4.861187     -2.595452      0.242589
  C      -6.060810     -3.208930      0.244307
  C      -7.206682     -2.527340      0.147367
  C      -7.183547     -1.192089      0.044378
  C      -8.339778     -0.522727     -0.051754
  C      -8.341093      0.810857     -0.155283
  C      -7.202559      1.532992     -0.167969
  C      -6.047694      0.823758     -0.069024
  C      -6.012747     -0.528911      0.037494
  C      -8.317983      3.650141     -0.373861
  C      -3.744232     -3.355674      0.345053
  C      -8.430896      4.987730     -0.481437
  C      -3.645064     -4.692242      0.453548
  C      -9.613115      5.559930     -0.570005
  N      -2.521339     -5.271980      0.542606
  N     -10.652609      6.064633     -0.647863
  H      -5.876895      4.593338     -0.355517
  H      -3.899686      3.377827     -0.186299
  H      -2.753181      1.350304      0.015491
  H      -2.712613     -0.952728      0.196564
  H      -6.180041     -4.299738      0.324725
  H      -8.159953     -3.084282      0.154197
  H      -9.306614     -1.056471     -0.047179
  H      -9.347856      1.245439     -0.227368
  H      -9.306638      3.167492     -0.373525
  H      -2.753315     -2.878451      0.346032
  H      -7.574500      5.675804     -0.502358
  H      -4.475498     -5.408952      0.477532
  H      -2.462929     -6.316841      0.626886
  H      -1.634205     -4.711112      0.533179
37
Coordinates from ORCA-job NC_NH2 E -916.895327400807
  C      -7.216387      2.957802     -0.278765
  C      -5.987021      3.578075     -0.280598
  C      -4.823706      2.884343     -0.182768
  C      -4.842217      1.517683     -0.077105
  C      -3.662489      0.818489      0.022215
  C      -3.668032     -0.532375      0.127257
  C      -4.837785     -1.266557      0.139791
  C      -4.847094     -2.656032      0.247729
  C      -6.077622     -3.276530      0.248819
  C      -7.241008     -2.582226      0.150314
  C      -7.224424     -1.216045      0.044740
  C      -8.403868     -0.517239     -0.054468
  C      -8.400017      0.833813     -0.159112
  C      -7.229936      1.568013     -0.171550
  C      -6.046431      0.842169     -0.070293
  C      -6.021231     -0.541242      0.038169
  C      -8.367489      3.732009     -0.382024
  C      -3.695133     -3.429371      0.352532
  C      -8.490572      5.079910     -0.490952
  C      -3.583041     -4.778260      0.462536
  C      -9.707423      5.670300     -0.582539
  N      -2.427795     -5.387369      0.555145
  N     -10.751218      6.179808     -0.661213
  H      -5.871118      4.666399     -0.360786
  H      -3.872335      3.437476     -0.189773
  H      -2.696235      1.345547      0.017993
  H      -2.669839     -0.980588      0.200206
  H      -6.192578     -4.365168      0.329183
  H      -8.192105     -3.136085      0.157013
  H      -9.369876     -1.044959     -0.050303
  H      -9.398747      1.280551     -0.231786
  H      -9.348911      3.239644     -0.380720
  H      -2.711067     -2.941327      0.352374
  H      -7.634153      5.766288     -0.511784
  H      -4.420221     -5.486185      0.485616
  H      -2.374627     -6.416342      0.638028
  H      -1.546436     -4.844418      0.546880
37
Coordinates from ORCA-job NC_NH2 E -916.938998950978
  C      -7.226971      3.015377     -0.282952
  C      -5.974740      3.648037     -0.284797
  C      -4.794226      2.944842     -0.185589
  C      -4.804688      1.549288     -0.077506
  C      -3.603838      0.818048      0.024815
  C      -3.615938     -0.546636      0.130407
  C      -4.818162     -1.291172      0.142554
  C      -4.834422     -2.708648      0.252134
  C      -6.090374     -3.338859      0.253089
  C      -7.270874     -2.634418      0.153507
  C      -7.265521     -1.239836      0.045536
  C      -8.465795     -0.509218     -0.056649
  C      -8.457692      0.855683     -0.162112
  C      -7.253661      1.598180     -0.173967
  C      -6.040325      0.860429     -0.070790
  C      -6.030883     -0.553815      0.039227
  C      -8.417457      3.795581     -0.388745
  C      -3.642136     -3.486478      0.358528
  C      -8.544109      5.148862     -0.499022
  C      -3.527759     -4.841083      0.469001
  C      -9.794077      5.764773     -0.595137
  N      -2.353160     -5.491005      0.565300
  N     -10.834028      6.283887     -0.675528
  H      -5.880795      4.734862     -0.365756
  H      -3.845382      3.491269     -0.192244
  H      -2.642174      1.341714      0.020575
  H      -2.633562     -1.019230      0.204379
  H      -6.186292     -4.425726      0.333818
  H      -8.219151     -3.182603      0.159959
  H      -9.427241     -1.033753     -0.052474
  H      -9.440580      1.326896     -0.235957
  H      -9.384227      3.282066     -0.385433
  H      -2.670850     -2.979022      0.356186
  H      -7.683044      5.826214     -0.519165
  H      -4.383305     -5.524741      0.489664
  H      -2.317433     -6.499453      0.645894
  H      -1.475317     -4.980311      0.559249
37
Coordinates from ORCA-job NC_NH2 E -916.945754575466
  C      -7.229161      3.038353     -0.282542
  C      -5.969489      3.678747     -0.284363
  C      -4.782376      2.973027     -0.184550
  C      -4.786516      1.565721     -0.075654
  C      -3.576212      0.817876      0.027458
  C      -3.590152     -0.549534      0.132326
  C      -4.808694     -1.299131      0.144363
  C      -4.828774     -2.729066      0.253747
  C      -6.094252     -3.364711      0.255057
  C      -7.281361     -2.657412      0.156288
  C      -7.285063     -1.251388      0.047879
  C      -8.494481     -0.504314     -0.055051
  C      -8.486343      0.863263     -0.160535
  C      -7.264773      1.609393     -0.172306
  C      -6.035490      0.869562     -0.068687
  C      -6.036771     -0.559557      0.041406
  C      -8.444530      3.817678     -0.391516
  C      -3.610551     -3.504200      0.359601
  C      -8.566384      5.170055     -0.504429
  C      -3.502190     -4.858862      0.469127
  C      -9.830761      5.805417     -0.607092
  N      -2.326616     -5.541836      0.566698
  N     -10.864119      6.335371     -0.691789
  H      -5.899273      4.765413     -0.366480
  H      -3.832508      3.513487     -0.190911
  H      -2.618973      1.345458      0.022443
  H      -2.621905     -1.045093      0.206754
  H      -6.169265     -4.451250      0.335690
  H      -8.230175     -3.200787      0.162620
  H      -9.451592     -1.032768     -0.050120
  H      -9.455251      1.356980     -0.235298
  H      -9.397584      3.284210     -0.386718
  H      -2.652118     -2.977618      0.354752
  H      -7.699218      5.837052     -0.523892
  H      -4.376809     -5.516363      0.487487
  H      -2.311025     -6.547616      0.645881
  H      -1.439437     -5.055555      0.562355
37
Coordinates from ORCA-job NC_NH2 E -916.946391347114
  C      -7.229046      3.040505     -0.280787
  C      -5.969920      3.683530     -0.282231
  C      -4.782343      2.978817     -0.182151
  C      -4.783771      1.570514     -0.073473
  C      -3.571048      0.819404      0.029281
  C      -3.583732     -0.546136      0.133223
  C      -4.805639     -1.298404      0.145402
  C      -4.826372     -2.730639      0.253937
  C      -6.092290     -3.367740      0.255640
  C      -7.279900     -2.661332      0.158234
  C      -7.287522     -1.254427      0.050348
  C      -8.499152     -0.504108     -0.052030
  C      -8.493026      0.861539     -0.157407
  C      -7.267553      1.609824     -0.169758
  C      -6.033862      0.871832     -0.066297
  C      -6.037781     -0.560639      0.043456
  C      -8.453133      3.819066     -0.392624
  C      -3.598705     -3.503754      0.358598
  C      -8.569497      5.169586     -0.508056
  C      -3.496619     -4.857499      0.466882
  C      -9.835737      5.814189     -0.615314
  N      -2.326865     -5.556741      0.563930
  N     -10.864607      6.351442     -0.703543
  H      -5.913111      4.770676     -0.364977
  H      -3.830558      3.516165     -0.188113
  H      -2.616753      1.352681      0.023587
  H      -2.622106     -1.053349      0.207675
  H      -6.155705     -4.454798      0.335869
  H      -8.230268     -3.202305      0.164653
  H      -9.453412     -1.038130     -0.046073
  H      -9.455603      1.366437     -0.232351
  H      -9.399452      3.275334     -0.387267
  H      -2.647181     -2.966676      0.352210
  H      -7.698591      5.831046     -0.526845
  H      -4.382003     -5.500019      0.484069
  H      -2.324340     -6.562049      0.641983
  H      -1.432987     -5.083843      0.560322
37
Coordinates from ORCA-job NC_NH2 E -916.946570934571
  C      -7.228801      3.038581     -0.279129
  C      -5.971433      3.682786     -0.279936
  C      -4.784490      2.979340     -0.179549
  C      -4.784854      1.572204     -0.071393
  C      -3.571194      0.821218      0.030864
  C      -3.582096     -0.542161      0.133944
  C      -4.804290     -1.296542      0.146252
  C      -4.824859     -2.728798      0.253879
  C      -6.089616     -3.366221      0.255969
  C      -7.276676     -2.661038      0.159903
  C      -7.286072     -1.255366      0.052671
  C      -8.498470     -0.505125     -0.048847
  C      -8.494497      0.858318     -0.154218
  C      -7.268432      1.608437     -0.167452
  C      -6.033409      0.872446     -0.064166
  C      -6.037520     -0.560788      0.045286
  C      -8.456967      3.817124     -0.393643
  C      -3.592351     -3.500694      0.357303
  C      -8.568983      5.166203     -0.511443
  C      -3.494875     -4.853769      0.464373
  C      -9.834133      5.816402     -0.622191
  N      -2.331400     -5.562987      0.560409
  N     -10.859409      6.359556     -0.713318
  H      -5.923811      4.770251     -0.362904
  H      -3.831008      3.514040     -0.184846
  H      -2.619789      1.360055      0.024691
  H      -2.624777     -1.057050      0.208363
  H      -6.145396     -4.453632      0.335736
  H      -8.228441     -3.199946      0.166499
  H      -9.449962     -1.044509     -0.041670
  H      -9.453065      1.370484     -0.228909
  H      -9.398823      3.266519     -0.387938
  H      -2.645922     -2.955801      0.349720
  H      -7.695813      5.824334     -0.529818
  H      -4.387377     -5.486108      0.480836
  H      -2.338432     -6.568563      0.637502
  H      -1.432746     -5.099202      0.557170
37
Coordinates from ORCA-job NC_NH2 E -916.946604863965
  C      -7.228800      3.036647     -0.278268
  C      -5.972459      3.681122     -0.278517
  C      -4.785987      2.978242     -0.177846
  C      -4.786622      1.572120     -0.070126
  C      -3.572719      0.822319      0.031847
  C      -3.582536     -0.540134      0.134455
  C      -4.804035     -1.295535      0.146772
  C      -4.824291     -2.727214      0.253831
  C      -6.088184     -3.364463      0.256176
  C      -7.274869     -2.659831      0.160871
  C      -7.284191     -1.255207      0.054041
  C      -8.496753     -0.506073     -0.046830
  C      -8.493883      0.856420     -0.152292
  C      -7.268433      1.607430     -0.166217
  C      -6.033671      0.872309     -0.062985
  C      -6.036913     -0.560658      0.046334
  C      -8.457537      3.815593     -0.394345
  C      -3.590742     -3.498925      0.356463
  C      -8.568075      5.164157     -0.513673
  C      -3.494683     -4.851846      0.462763
  C      -9.831683      5.815872     -0.626049
  N      -2.334406     -5.563977      0.557934
  N     -10.855196      6.361988     -0.718679
  H      -5.928100      4.768724     -0.361377
  H      -3.831625      3.511558     -0.182538
  H      -2.622941      1.364216      0.025541
  H      -2.626688     -1.057725      0.208844
  H      -6.141572     -4.452021      0.335648
  H      -8.227359     -3.197642      0.167638
  H      -9.446714     -1.048345     -0.038770
  H      -9.451134      1.371148     -0.226544
  H      -9.397809      3.262445     -0.388465
  H      -2.646509     -2.950566      0.348328
  H      -7.694413      5.821589     -0.532174
  H      -4.389641     -5.480664      0.478994
  H      -2.345091     -6.569681      0.634474
  H      -1.433924     -5.103393      0.554743
37
Coordinates from ORCA-job NC_NH2 E -916.946608585186
  C      -7.228982      3.036029     -0.277960
  C      -5.972786      3.680575     -0.277902
  C      -4.786362      2.977780     -0.177035
  C      -4.787438      1.571841     -0.069510
  C      -3.573387      0.822703      0.032386
  C      -3.582866     -0.539693      0.134815
  C      -4.804009     -1.295394      0.147072
  C      -4.824138     -2.726834      0.253867
  C      -6.087866     -3.363979      0.256340
  C      -7.274579     -2.659416      0.161335
  C      -7.283456     -1.255001      0.054658
  C      -8.496149     -0.506473     -0.045897
  C      -8.493540      0.855952     -0.151446
  C      -7.268445      1.607197     -0.165709
  C      -6.033981      0.872168     -0.062459
  C      -6.036583     -0.560608      0.046824
  C      -8.457296      3.815273     -0.394704
  C      -3.590814     -3.498729      0.356104
  C      -8.567885      5.163771     -0.514902
  C      -3.494606     -4.851694      0.461988
  C      -9.830733      5.815426     -0.627826
  N      -2.334995     -5.563795      0.556666
  N     -10.853578      6.362725     -0.721048
  H      -5.928726      4.768210     -0.360620
  H      -3.831773      3.510692     -0.181387
  H      -2.624151      1.365553      0.026115
  H      -2.627120     -1.057524      0.209182
  H      -6.141294     -4.451568      0.335675
  H      -8.227241     -3.196917      0.168210
  H      -9.445614     -1.049607     -0.037410
  H      -9.450715      1.370937     -0.225379
  H      -9.397432      3.261837     -0.388677
  H      -2.647046     -2.949559      0.347841
  H      -7.694379      5.821454     -0.533768
  H      -4.389807     -5.480207      0.478173
  H      -2.346106     -6.569613      0.632952
  H      -1.434309     -5.103511      0.553438
