37
Coordinates from ORCA-job NC_NH2_4 E -916.806218283635
  C      -7.226624      3.031802     -0.227926
  C      -5.969005      3.674652     -0.219587
  C      -4.782720      2.967811     -0.143270
  C      -4.785450      1.559585     -0.064240
  C      -3.572223      0.808556      0.045221
  C      -3.584315     -0.555325      0.128016
  C      -4.807675     -1.306727      0.097588
  C      -4.829297     -2.737361      0.172775
  C      -6.088182     -3.379748      0.154384
  C      -7.277987     -2.673037      0.079559
  C      -7.285213     -1.267578     -0.002232
  C      -8.497101     -0.516119     -0.110152
  C      -8.491831      0.847549     -0.192998
  C      -7.266982      1.600765     -0.161708
  C      -6.033592      0.862682     -0.074877
  C      -6.038546     -0.571415      0.004822
  C      -8.456503      3.817781     -0.276443
  C      -3.595249     -3.516253      0.253754
  C      -8.554861      5.151722     -0.634751
  C      -3.499204     -4.784233      0.731118
  C      -9.889059      5.750401     -0.607368
  N      -2.374052     -5.568834      0.718685
  N     -10.847751      6.372711     -0.595820
  H      -5.925703      4.766417     -0.237644
  H      -3.828197      3.500532     -0.123555
  H      -2.623941      1.352553      0.070059
  H      -2.635713     -1.082709      0.230158
  H      -6.127721     -4.471138      0.164074
  H      -8.230010     -3.211237      0.058680
  H      -9.446306     -1.059476     -0.132245
  H      -9.446672      1.362836     -0.295644
  H      -9.209072      3.118329      0.018480
  H      -2.673063     -3.046317     -0.100178
  H      -8.069123      5.651014     -0.982541
  H      -4.377370     -5.284480      1.152805
  H      -2.312802     -6.331901      1.380875
  H      -1.486740     -5.138933      0.481315
37
Coordinates from ORCA-job NC_NH2_4 E -916.912373506032
  C      -7.236510      3.026332     -0.224369
  C      -5.979477      3.670854     -0.216481
  C      -4.791817      2.966213     -0.140875
  C      -4.792527      1.558116     -0.062338
  C      -3.577925      0.809162      0.046277
  C      -3.587472     -0.554687      0.128479
  C      -4.809463     -1.308281      0.098237
  C      -4.828197     -2.738957      0.172750
  C      -6.085757     -3.383983      0.154612
  C      -7.276949     -2.679690      0.080631
  C      -7.286996     -1.274158     -0.000495
  C      -8.500373     -0.525404     -0.107568
  C      -8.498096      0.838355     -0.189869
  C      -7.274733      1.594730     -0.158710
  C      -6.039736      0.858952     -0.072712
  C      -6.041799     -0.575293      0.006348
  C      -8.467700      3.815325     -0.272163
  C      -3.592532     -3.515342      0.252790
  C      -8.558578      5.137045     -0.626452
  C      -3.493724     -4.783362      0.729483
  C      -9.880183      5.751412     -0.600287
  N      -2.366976     -5.565629      0.716166
  N     -10.845629      6.385472     -0.588898
  H      -5.939056      4.762837     -0.234443
  H      -3.838053      3.500367     -0.121465
  H      -2.630620      1.354849      0.070902
  H      -2.637862     -1.080373      0.229951
  H      -6.123036     -4.475453      0.163802
  H      -8.227890     -3.219797      0.059891
  H      -9.448360     -1.070796     -0.129548
  H      -9.454714      1.350681     -0.292056
  H      -9.247797      3.136208      0.021548
  H      -2.671449     -3.043374     -0.101303
  H      -7.958702      5.720898     -1.040476
  H      -4.370697     -5.285596      1.151285
  H      -2.303824     -6.328929      1.377930
  H      -1.480645     -5.133827      0.478613
37
Coordinates from ORCA-job NC_NH2_4 E -916.935719828084
  C      -7.248323      3.017358     -0.231016
  C      -5.992778      3.664628     -0.225491
  C      -4.802624      2.963844     -0.146706
  C      -4.800290      1.556300     -0.064599
  C      -3.583852      0.810267      0.045734
  C      -3.590025     -0.553379      0.129464
  C      -4.810298     -1.309975      0.099164
  C      -4.825371     -2.740564      0.174332
  C      -6.081161     -3.389131      0.155738
  C      -7.274149     -2.688143      0.080499
  C      -7.287792     -1.282629     -0.001423
  C      -8.503079     -0.537503     -0.110393
  C      -8.504317      0.826201     -0.194573
  C      -7.282992      1.586313     -0.162503
  C      -6.046087      0.854030     -0.074373
  C      -6.044445     -0.580197      0.006031
  C      -8.483302      3.810395     -0.281418
  C      -3.587625     -3.513667      0.255159
  C      -8.566388      5.116334     -0.627564
  C      -3.485750     -4.781301      0.732125
  C      -9.850645      5.778506     -0.587599
  N      -2.356816     -5.560558      0.719584
  N     -10.810205      6.434770     -0.560123
  H      -5.958155      4.756497     -0.248668
  H      -3.850047      3.500255     -0.129017
  H      -2.637883      1.358284      0.069865
  H      -2.639178     -1.076618      0.231795
  H      -6.115393     -4.480697      0.165436
  H      -8.223626     -3.230789      0.059191
  H      -9.449445     -1.085480     -0.133252
  H      -9.463275      1.334330     -0.300004
  H      -9.331475      3.197113      0.015729
  H      -2.667565     -3.039429     -0.098550
  H      -7.866547      5.715347     -1.020672
  H      -4.361668     -5.285776      1.153428
  H      -2.291759     -6.323514      1.381580
  H      -1.471524     -5.126547      0.482278
37
Coordinates from ORCA-job NC_NH2_4 E -916.945807408153
  C      -7.250188      3.010980     -0.228037
  C      -5.998259      3.662640     -0.222850
  C      -4.805874      2.964098     -0.144256
  C      -4.800845      1.556529     -0.062143
  C      -3.583551      0.810929      0.046574
  C      -3.588848     -0.552824      0.129170
  C      -4.809017     -1.310453      0.099804
  C      -4.823738     -2.740980      0.173596
  C      -6.079514     -3.389798      0.156386
  C      -7.273014     -2.689103      0.083967
  C      -7.287241     -1.283560      0.003176
  C      -8.503294     -0.538008     -0.102762
  C      -8.504031      0.825836     -0.186172
  C      -7.282173      1.583227     -0.158077
  C      -6.045416      0.852518     -0.070827
  C      -6.043516     -0.581302      0.009052
  C      -8.488308      3.797477     -0.280949
  C      -3.585667     -3.514205      0.251815
  C      -8.589309      5.098716     -0.629583
  C      -3.482999     -4.782164      0.727546
  C      -9.846466      5.785016     -0.610439
  N      -2.353953     -5.561480      0.712501
  N     -10.814335      6.431896     -0.595430
  H      -5.968593      4.754065     -0.249087
  H      -3.854431      3.502316     -0.128113
  H      -2.637883      1.359536      0.070145
  H      -2.637570     -1.075518      0.230124
  H      -6.113338     -4.481387      0.165263
  H      -8.222379     -3.231991      0.063991
  H      -9.449903     -1.085627     -0.123216
  H      -9.462115      1.336651     -0.287501
  H      -9.393116      3.257517      0.004193
  H      -2.666128     -3.039792     -0.103001
  H      -7.786013      5.702125     -0.983435
  H      -4.358267     -5.287010      1.149736
  H      -2.287478     -6.324672      1.374069
  H      -1.469084     -5.127321      0.473956
37
Coordinates from ORCA-job NC_NH2_4 E -916.947046893447
  C      -7.250004      3.010203     -0.224278
  C      -5.999177      3.663590     -0.217645
  C      -4.807079      2.964598     -0.137677
  C      -4.801472      1.556895     -0.056354
  C      -3.584027      0.811143      0.050427
  C      -3.589240     -0.552743      0.130885
  C      -4.809272     -1.310695      0.101791
  C      -4.823770     -2.741219      0.173047
  C      -6.079578     -3.389895      0.156773
  C      -7.273319     -2.689075      0.087829
  C      -7.287874     -1.283445      0.009205
  C      -8.504271     -0.537464     -0.092704
  C      -8.504892      0.826478     -0.174928
  C      -7.282179      1.582484     -0.150882
  C      -6.045515      0.852085     -0.064888
  C      -6.043888     -0.581642      0.013803
  C      -8.486105      3.791344     -0.286086
  C      -3.585409     -3.514429      0.247595
  C      -8.598985      5.094848     -0.640115
  C      -3.481528     -4.783152      0.720941
  C      -9.846520      5.788267     -0.634420
  N      -2.352323     -5.562192      0.702291
  N     -10.824462      6.419148     -0.629173
  H      -5.969369      4.754726     -0.247113
  H      -3.855749      3.503012     -0.121964
  H      -2.638327      1.359708      0.073926
  H      -2.637788     -1.075525      0.230040
  H      -6.113349     -4.481497      0.163761
  H      -8.222675     -3.232020      0.068859
  H      -9.450996     -1.084989     -0.110363
  H      -9.461523      1.340048     -0.270710
  H      -9.411518      3.281497     -0.009838
  H      -2.666612     -3.039199     -0.108155
  H      -7.749022      5.696428     -0.964057
  H      -4.355864     -5.288984      1.143885
  H      -2.284096     -6.326098      1.362874
  H      -1.468079     -5.127359      0.462608
37
Coordinates from ORCA-job NC_NH2_4 E -916.947133253858
  C      -7.248946      3.011905     -0.222331
  C      -5.997656      3.665089     -0.214341
  C      -4.806334      2.965217     -0.133082
  C      -4.801085      1.557488     -0.052662
  C      -3.583854      0.811436      0.053419
  C      -3.589405     -0.552558      0.132453
  C      -4.809474     -1.310303      0.103058
  C      -4.824203     -2.740928      0.172692
  C      -6.080215     -3.389169      0.157117
  C      -7.273832     -2.687927      0.090251
  C      -7.288177     -1.282212      0.012818
  C      -8.504477     -0.535794     -0.086346
  C      -8.504935      0.828136     -0.168360
  C      -7.281729      1.583481     -0.147160
  C      -6.045204      0.852841     -0.061448
  C      -6.043987     -0.580924      0.016579
  C      -8.483455      3.790847     -0.288491
  C      -3.585969     -3.514474      0.244950
  C      -8.600392      5.095146     -0.644246
  C      -3.481831     -4.783838      0.716541
  C      -9.847884      5.786197     -0.646701
  N      -2.352850     -5.563101      0.695503
  N     -10.834507      6.403225     -0.648217
  H      -5.966315      4.756089     -0.244213
  H      -3.854799      3.503286     -0.116145
  H      -2.638000      1.359711      0.077377
  H      -2.638043     -1.075647      0.230863
  H      -6.114313     -4.480772      0.163047
  H      -8.223330     -3.230656      0.072031
  H      -9.451344     -1.083154     -0.101680
  H      -9.460868      1.343516     -0.260430
  H      -9.412570      3.283330     -0.019879
  H      -2.667508     -3.038993     -0.111320
  H      -7.739862      5.694176     -0.962793
  H      -4.355802     -5.290064      1.139787
  H      -2.283863     -6.327625      1.355308
  H      -1.468836     -5.128098      0.455242
37
Coordinates from ORCA-job NC_NH2_4 E -916.947168428545
  C      -7.248510      3.013373     -0.222632
  C      -5.996586      3.665932     -0.213660
  C      -4.805907      2.965463     -0.130958
  C      -4.800993      1.557788     -0.050607
  C      -3.583933      0.811618      0.055425
  C      -3.589726     -0.552438      0.133831
  C      -4.809806     -1.309973      0.104206
  C      -4.824661     -2.740676      0.172959
  C      -6.080802     -3.388663      0.157806
  C      -7.274308     -2.687172      0.092052
  C      -7.288508     -1.281397      0.015130
  C      -8.504678     -0.534813     -0.082672
  C      -8.505138      0.829055     -0.165057
  C      -7.281764      1.584271     -0.145530
  C      -6.045284      0.853443     -0.059621
  C      -6.044259     -0.580374      0.018382
  C      -8.481676      3.791608     -0.292636
  C      -3.586479     -3.514348      0.243719
  C      -8.599303      5.097278     -0.645745
  C      -3.482096     -4.784195      0.714000
  C      -9.847706      5.785600     -0.652081
  N      -2.353209     -5.563511      0.691312
  N     -10.842686      6.388974     -0.656820
  H      -5.963744      4.756879     -0.244166
  H      -3.854205      3.503254     -0.113089
  H      -2.637974      1.359686      0.079741
  H      -2.638447     -1.075742      0.232010
  H      -6.115125     -4.480264      0.163135
  H      -8.223881     -3.229788      0.074266
  H      -9.451585     -1.082164     -0.096400
  H      -9.460589      1.345498     -0.255109
  H      -9.411206      3.282281     -0.029148
  H      -2.668269     -3.038570     -0.112807
  H      -7.733979      5.694496     -0.958700
  H      -4.355797     -5.290794      1.137363
  H      -2.283642     -6.328463      1.350573
  H      -1.469390     -5.128277      0.450715
37
Coordinates from ORCA-job NC_NH2_4 E -916.947196258766
  C      -7.247529      3.015198     -0.224020
  C      -5.994791      3.666685     -0.214550
  C      -4.804690      2.965692     -0.130609
  C      -4.800258      1.558076     -0.049934
  C      -3.583480      0.811672      0.056386
  C      -3.589730     -0.552425      0.134673
  C      -4.809978     -1.309509      0.104879
  C      -4.825227     -2.740277      0.173326
  C      -6.081609     -3.387834      0.158664
  C      -7.274859     -2.685938      0.093488
  C      -7.288636     -1.280126      0.016515
  C      -8.504533     -0.533255     -0.080557
  C      -8.504761      0.830519     -0.163629
  C      -7.281234      1.585574     -0.145576
  C      -6.044913      0.854381     -0.059087
  C      -6.044247     -0.579489      0.019262
  C      -8.479870      3.793403     -0.296483
  C      -3.587267     -3.514270      0.243275
  C      -8.597437      5.100867     -0.643878
  C      -3.483046     -4.784484      0.712660
  C      -9.848301      5.784054     -0.653802
  N      -2.354390     -5.564080      0.688934
  N     -10.854660      6.368216     -0.661565
  H      -5.960238      4.757566     -0.245816
  H      -3.852798      3.503161     -0.112156
  H      -2.637341      1.359400      0.081015
  H      -2.638644     -1.076062      0.232990
  H      -6.116350     -4.479423      0.163914
  H      -8.224598     -3.228282      0.076203
  H      -9.451558     -1.080454     -0.092875
  H      -9.459790      1.347895     -0.252324
  H      -9.408459      3.279044     -0.039963
  H      -2.669101     -3.038479     -0.113334
  H      -7.729599      5.697130     -0.948925
  H      -4.356720     -5.291151      1.135997
  H      -2.284606     -6.329269      1.347913
  H      -1.470607     -5.128847      0.448179
37
Coordinates from ORCA-job NC_NH2_4 E -916.947204207987
  C      -7.246949      3.015663     -0.225545
  C      -5.994016      3.666664     -0.216518
  C      -4.803925      2.965690     -0.132549
  C      -4.799693      1.558074     -0.051301
  C      -3.583040      0.811547      0.055375
  C      -3.589513     -0.552524      0.134229
  C      -4.809912     -1.309362      0.104595
  C      -4.825409     -2.740112      0.173652
  C      -6.081885     -3.387503      0.158980
  C      -7.274997     -2.685456      0.093255
  C      -7.288510     -1.279673      0.015742
  C      -8.504272     -0.532704     -0.081989
  C      -8.504289      0.831030     -0.165384
  C      -7.280769      1.586130     -0.147073
  C      -6.044547      0.854727     -0.060358
  C      -6.044055     -0.579147      0.018483
  C      -8.479530      3.794474     -0.297494
  C      -3.587597     -3.514287      0.244183
  C      -8.596236      5.103031     -0.640146
  C      -3.483732     -4.784423      0.713868
  C      -9.848643      5.783614     -0.649651
  N      -2.355195     -5.564218      0.690647
  N     -10.860136      6.358868     -0.657113
  H      -5.959064      4.757537     -0.248499
  H      -3.851985      3.503080     -0.114651
  H      -2.636817      1.359132      0.079879
  H      -2.638531     -1.076283      0.232876
  H      -6.116809     -4.479081      0.164672
  H      -8.224821     -3.227648      0.075974
  H      -9.451363     -1.079781     -0.094545
  H      -9.459339      1.348247     -0.254708
  H      -9.407398      3.277563     -0.043898
  H      -2.669243     -3.038722     -0.112237
  H      -7.729026      5.699968     -0.940540
  H      -4.357619     -5.290849      1.137045
  H      -2.285711     -6.329229      1.349864
  H      -1.471277     -5.129159      0.450071
37
Coordinates from ORCA-job NC_NH2_4 E -916.947206104098
  C      -7.246567      3.015565     -0.226443
  C      -5.993725      3.666504     -0.217969
  C      -4.803494      2.965648     -0.134408
  C      -4.799344      1.558006     -0.052797
  C      -3.582737      0.811407      0.054079
  C      -3.589290     -0.552628      0.133460
  C      -4.809783     -1.309372      0.104020
  C      -4.825408     -2.740085      0.173710
  C      -6.081905     -3.387427      0.158926
  C      -7.274965     -2.685337      0.092563
  C      -7.288342     -1.279597      0.014577
  C      -8.504063     -0.532576     -0.083853
  C      -8.503920      0.831158     -0.167305
  C      -7.280412      1.586274     -0.148527
  C      -6.044257      0.854767     -0.061684
  C      -6.043852     -0.579088      0.017442
  C      -8.479584      3.794777     -0.297032
  C      -3.587681     -3.514358      0.245072
  C      -8.595792      5.103878     -0.637041
  C      -3.484127     -4.784275      0.715398
  C      -9.848943      5.783426     -0.645463
  N      -2.355648     -5.564195      0.693022
  N     -10.862013      6.355920     -0.652049
  H      -5.958927      4.757374     -0.250279
  H      -3.851552      3.503031     -0.117156
  H      -2.636483      1.358953      0.078351
  H      -2.638347     -1.076405      0.232334
  H      -6.116890     -4.478999      0.165065
  H      -8.224832     -3.227446      0.075171
  H      -9.451203     -1.079543     -0.096972
  H      -9.459154      1.347941     -0.257405
  H      -9.407504      3.277398     -0.044701
  H      -2.669121     -3.039056     -0.111163
  H      -7.729637      5.701919     -0.935462
  H      -4.358234     -5.290414      1.138461
  H      -2.286538     -6.328933      1.352594
  H      -1.471578     -5.129333      0.452654
37
Coordinates from ORCA-job NC_NH2_4 E -916.947206558173
  C      -7.246389      3.015433     -0.226801
  C      -5.993641      3.666438     -0.218589
  C      -4.803347      2.965621     -0.135257
  C      -4.799244      1.557961     -0.053506
  C      -3.582643      0.811330      0.053410
  C      -3.589205     -0.552685      0.133029
  C      -4.809727     -1.309415      0.103728
  C      -4.825388     -2.740105      0.173723
  C      -6.081877     -3.387446      0.158852
  C      -7.274931     -2.685352      0.092189
  C      -7.288270     -1.279637      0.014015
  C      -8.503986     -0.532588     -0.084728
  C      -8.503778      0.831157     -0.168147
  C      -7.280277      1.586271     -0.149106
  C      -6.044147      0.854714     -0.062299
  C      -6.043770     -0.579123      0.016948
  C      -8.479579      3.794736     -0.296809
  C      -3.587685     -3.514408      0.245478
  C      -8.595607      5.104150     -0.635573
  C      -3.484251     -4.784193      0.716172
  C      -9.849025      5.783365     -0.643485
  N      -2.355787     -5.564155      0.694229
  N     -10.862464      6.355205     -0.649652
  H      -5.958997      4.757303     -0.251070
  H      -3.851395      3.502985     -0.118351
  H      -2.636386      1.358880      0.077522
  H      -2.638260     -1.076447      0.231958
  H      -6.116864     -4.479017      0.165174
  H      -8.224814     -3.227431      0.074708
  H      -9.451154     -1.079491     -0.098166
  H      -9.459158      1.347632     -0.258583
  H      -9.407895      3.277721     -0.045214
  H      -2.669033     -3.039242     -0.110699
  H      -7.729934      5.703037     -0.933064
  H      -4.358448     -5.290190      1.139221
  H      -2.286852     -6.328745      1.353989
  H      -1.471648     -5.129389      0.453943
