37
Energy =
C    -7.1055123    2.7391098   -0.2629619 
C    -5.8431997    3.3744014   -0.2665907 
C    -4.6647227    2.6613301   -0.1467697 
C    -4.6816976    1.2569217   -0.0126590 
C    -3.4744328    0.4967771    0.1041358 
C    -3.4990491   -0.8630498    0.2354017 
C    -4.7333038   -1.5972915    0.2709006 
C    -4.7724422   -3.0192012    0.4155496 
C    -6.0330537   -3.6535192    0.4239043 
C    -7.2161516   -2.9434143    0.2801311 
C    -7.2085570   -1.5430993    0.1401379 
C    -8.4144196   -0.7831108    0.0099413 
C    -8.3952845    0.5766718   -0.1172524 
C    -7.1612591    1.3144607   -0.1289297 
C    -5.9362291    0.5716078   -0.0001076 
C    -5.9564085   -0.8566858    0.1390993 
C    -8.3248797    3.5233464   -0.3943885 
C    -3.5425296   -3.8016903    0.5668540 
C    -8.4284317    4.8603656   -0.5252481 
C    -3.4052617   -5.1016073    0.2402147 
O    -2.2456692   -5.7669497    0.4525422 
N    -9.7352956    5.4852660   -0.6466431 
O    -9.7329725    6.7058732   -0.7618839 
O   -10.7420843    4.7876145   -0.6291508 
H    -5.7917671    4.4600963   -0.3684265 
H    -3.7046795    3.1839703   -0.1559871 
H    -2.5196469    1.0290319    0.0808129 
H    -2.5544695   -1.4028313    0.3055691 
H    -6.0832941   -4.7331259    0.5816529 
H    -8.1738681   -3.4711274    0.2978542 
H    -9.3692284   -1.3163650    0.0142645 
H    -9.3437960    1.1041826   -0.2126679 
H    -9.2857468    3.0063190   -0.3909627 
H    -2.6517144   -3.3139790    0.9703228 
H    -7.6293603    5.5978213   -0.5565844 
H    -4.2178167   -5.6763200   -0.2207339 
H    -2.3083901   -6.6605695    0.0946442 
