36
Energy =
C    -7.2096883    2.8848629   -0.1941876 
C    -5.9512333    3.5244224   -0.1971370 
C    -4.7663116    2.8113974   -0.1361596 
C    -4.7741512    1.4036327   -0.0666854 
C    -3.5624464    0.6444557    0.0144810 
C    -3.5796992   -0.7195176    0.0831432 
C    -4.8103255   -1.4619334    0.0680049 
C    -4.8417689   -2.8895508    0.1297875 
C    -6.0992384   -3.5297615    0.1231623 
C    -7.2887311   -2.8171577    0.0753845 
C    -7.2888027   -1.4115064    0.0104336 
C    -8.4997699   -0.6515479   -0.0657661 
C    -8.4867786    0.7121849   -0.1366837 
C    -7.2555891    1.4562653   -0.1275793 
C    -6.0259670    0.7130619   -0.0637746 
C    -6.0386025   -0.7207553    0.0034040 
C    -8.4370805    3.6762982   -0.2419197 
C    -3.6053220   -3.6757067    0.1830352 
C    -8.5448395    4.9850887   -0.5840456 
C    -3.4933117   -4.9082286    0.7149547 
C    -9.7905190    5.6787817   -0.5709897 
O    -2.3245075   -5.5916687    0.6832546 
N   -10.7980476    6.2607018   -0.5696253 
H    -5.9070004    4.6151229   -0.2198758 
H    -3.8093602    3.3399332   -0.1277695 
H    -2.6108785    1.1830017    0.0262567 
H    -2.6337328   -1.2559935    0.1598808 
H    -6.1390140   -4.6213241    0.1207338 
H    -8.2434165   -3.3505657    0.0638669 
H    -9.4521547   -1.1892110   -0.0716919 
H    -9.4381551    1.2388137   -0.2095535 
H    -9.3658947    3.1706382    0.0302383 
H    -2.6891812   -3.2482870   -0.2322284 
H    -7.6786363    5.5730423   -0.9016567 
H    -4.3360934   -5.4103563    1.2055123 
H    -2.4129743   -6.4167262    1.1750652 
