47
Energy =
C    -4.3188788    3.2178310   -2.2026685 
C    -4.3625065    3.8643404    0.2688744 
C    -3.5895785    3.9240224   -1.0537896 
C    -2.2459894    5.7509085   -1.5086183 
C    -1.9854863    7.0660128   -1.8487698 
C    -2.2962395    1.1002245   -0.2905961 
C    -0.5051190   -2.8861335    0.7932946 
C    -2.1240226    3.5243154   -0.9231766 
C    -1.3577713    4.6467011   -1.2038138 
C    -0.0575434   -4.1493460    1.1374592 
C    -1.8842216   -2.5815360    0.6874802 
C    -1.5956359    2.2467399   -0.5785500 
C    -1.4840233   -7.5288619    2.0048056 
C    -0.9706844   -5.2108722    1.4029362 
C    -2.7854520   -3.6391807    0.9518245 
C    -2.3566720   -4.9110990    1.2980326 
C     0.8933919   -6.7407667    1.8423924 
O    -3.5133545    5.3329748   -1.4213068 
C    -0.6612951    7.5876613   -1.9648526 
C    -3.0770957    7.9557848   -2.0995885 
C     0.0645227    4.6590294   -1.1816831 
N    -0.5296588   -6.4654508    1.7442720 
N     0.3979946    8.0547659   -2.0717770 
N    -3.9570325    8.6872337   -2.3051634 
N     1.2226914    4.5723507   -1.1381610 
C    -1.6813127   -0.1423640    0.0475198 
C    -2.3933277   -1.2761230    0.3328835 
H    -4.4624860    2.1494958   -1.9872349 
H    -5.3053774    3.6832443   -2.3479130 
H    -3.7477698    3.3109998   -3.1381679 
H    -4.5088725    2.8259671    0.5981776 
H    -3.8211278    4.4075974    1.0574096 
H    -5.3484707    4.3341361    0.1356877 
H    -3.3910255    1.1090918   -0.3130735 
H     0.2395827   -2.1104853    0.6000194 
H     1.0162907   -4.3195844    1.2021518 
H    -0.5020365    2.1926290   -0.5441375 
H    -2.1529229   -7.2863404    2.8504030 
H    -2.1178868   -7.7409793    1.1244669 
H    -0.9433209   -8.4494640    2.2580438 
H    -3.8607072   -3.4488159    0.8815734 
H    -3.1034136   -5.6801968    1.4897852 
H     1.0420552   -7.7903914    2.1250088 
H     1.4152252   -6.5730693    0.8827460 
H     1.3849524   -6.1127203    2.6072173 
H    -0.5867516   -0.1604303    0.0733422 
H    -3.4873159   -1.1995925    0.2918091 
