! B3LYP def2-SVP Opt PAL8 FREQ defgrid3 slowconv VeryTightSCF
*xyz 0 1
 C        -7.210739        2.885025       -0.200641
 C        -5.950182        3.521704       -0.205524
 C        -4.766227        2.808122       -0.151264
 C        -4.774662        1.399911       -0.082159
 C        -3.562930        0.641814        0.002012
 C        -3.579659       -0.722004        0.076110
 C        -4.809962       -1.464253        0.061855
 C        -4.840919       -2.891750        0.131189
 C        -6.097860       -3.532736        0.123258
 C        -7.287430       -2.820811        0.067140
 C        -7.287688       -1.415571       -0.003930
 C        -8.498340       -0.656567       -0.089305
 C        -8.486292        0.706981       -0.161744
 C        -7.256874        1.454582       -0.143281
 C        -6.026738        0.710365       -0.079222
 C        -6.038381       -0.723607       -0.009137
 C        -8.438128        3.677428       -0.227441
 C        -3.604470       -3.677057        0.194061
 C        -8.534240        5.012412       -0.575022
 C        -3.494309       -4.905685        0.735694
 C        -9.796930        5.683308       -0.527916
 O        -2.325071       -5.588552        0.713670
 N       -10.817535        6.248415       -0.500121
 H        -5.901540        4.613227       -0.216977
 H        -3.809023        3.336210       -0.142227
 H        -2.611665        1.180898        0.013126
 H        -2.633653       -1.257869        0.156512
 H        -6.136959       -4.624308        0.126247
 H        -8.241940       -3.354504        0.054129
 H        -9.450493       -1.194776       -0.101796
 H        -9.439671        1.228254       -0.245815
 H        -9.389102        3.147612        0.075724
 H        -2.686599       -3.252992       -0.220784
 H        -7.648078        5.643930       -0.928711
 H        -4.339022       -5.403719        1.227030
 H        -2.415913       -6.411530        1.208530
*
