36
Coordinates from ORCA-job NC_OH_4 E -936.785844727607
  C      -7.210739      2.885025     -0.200641
  C      -5.950182      3.521704     -0.205524
  C      -4.766227      2.808122     -0.151264
  C      -4.774662      1.399911     -0.082159
  C      -3.562930      0.641814      0.002012
  C      -3.579659     -0.722004      0.076110
  C      -4.809962     -1.464253      0.061855
  C      -4.840919     -2.891750      0.131189
  C      -6.097860     -3.532736      0.123258
  C      -7.287430     -2.820811      0.067140
  C      -7.287688     -1.415571     -0.003930
  C      -8.498340     -0.656567     -0.089305
  C      -8.486292      0.706981     -0.161744
  C      -7.256874      1.454582     -0.143281
  C      -6.026738      0.710365     -0.079222
  C      -6.038381     -0.723607     -0.009137
  C      -8.438128      3.677428     -0.227441
  C      -3.604470     -3.677057      0.194061
  C      -8.534240      5.012412     -0.575022
  C      -3.494309     -4.905685      0.735694
  C      -9.796930      5.683308     -0.527916
  O      -2.325071     -5.588552      0.713670
  N     -10.817535      6.248415     -0.500121
  H      -5.901540      4.613227     -0.216977
  H      -3.809023      3.336210     -0.142227
  H      -2.611665      1.180898      0.013126
  H      -2.633653     -1.257869      0.156512
  H      -6.136959     -4.624308      0.126247
  H      -8.241940     -3.354504      0.054129
  H      -9.450493     -1.194776     -0.101796
  H      -9.439671      1.228254     -0.245815
  H      -9.389102      3.147612      0.075724
  H      -2.686599     -3.252992     -0.220784
  H      -7.648078      5.643930     -0.928711
  H      -4.339022     -5.403719      1.227030
  H      -2.415913     -6.411530      1.208530
36
Coordinates from ORCA-job NC_OH_4 E -936.789108956957
  C      -7.208001      2.887658     -0.195961
  C      -5.947877      3.524806     -0.200853
  C      -4.763884      2.810782     -0.143931
  C      -4.772714      1.402666     -0.074062
  C      -3.561414      0.643479      0.008209
  C      -3.579177     -0.720468      0.079997
  C      -4.810152     -1.461960      0.065502
  C      -4.842275     -2.889560      0.131005
  C      -6.099835     -3.529540      0.122778
  C      -7.288924     -2.816627      0.069865
  C      -7.288159     -1.411148      0.002133
  C      -8.498285     -0.650842     -0.080762
  C      -8.484704      0.712948     -0.151837
  C      -7.254425      1.458037     -0.134705
  C      -6.025150      0.713520     -0.070660
  C      -6.038053     -0.720356     -0.002566
  C      -8.434075      3.680158     -0.231755
  C      -3.606380     -3.676083      0.189599
  C      -8.539341      4.991362     -0.582994
  C      -3.496480     -4.906639      0.726709
  C      -9.794955      5.667594     -0.544973
  O      -2.327975     -5.590649      0.700663
  N     -10.810567      6.235779     -0.524129
  H      -5.900625      4.615367     -0.218413
  H      -3.806520      3.338542     -0.136841
  H      -2.609702      1.181773      0.018752
  H      -2.633488     -1.257193      0.158203
  H      -6.139817     -4.621089      0.122805
  H      -8.243822     -3.349598      0.056337
  H      -9.450898     -1.187983     -0.093145
  H      -9.436932      1.236884     -0.234239
  H      -9.355933      3.175732      0.059429
  H      -2.688825     -3.251211     -0.225161
  H      -7.690201      5.586664     -0.922357
  H      -4.340883     -5.405869      1.217418
  H      -2.418774     -6.415028      1.193209
36
Coordinates from ORCA-job NC_OH_4 E -936.789187730294
  C      -7.207469      2.886850     -0.194011
  C      -5.948322      3.525319     -0.197906
  C      -4.763753      2.811700     -0.139031
  C      -4.772160      1.403648     -0.069623
  C      -3.560864      0.644101      0.011768
  C      -3.578848     -0.719928      0.081572
  C      -4.809970     -1.461461      0.066674
  C      -4.842361     -2.889072      0.130014
  C      -6.100149     -3.528706      0.122512
  C      -7.289221     -2.815534      0.072448
  C      -7.288351     -1.409955      0.006405
  C      -8.498641     -0.649215     -0.072879
  C      -8.484600      0.714637     -0.143431
  C      -7.253494      1.458192     -0.130518
  C      -6.024447      0.714069     -0.066658
  C      -6.037810     -0.719682      0.000619
  C      -8.434724      3.678053     -0.236157
  C      -3.606536     -3.675983      0.185820
  C      -8.542121      4.985332     -0.585588
  C      -3.496209     -4.907564      0.720390
  C      -9.795400      5.666785     -0.559214
  O      -2.327907     -5.591897      0.691628
  N     -10.808792      6.238274     -0.547475
  H      -5.902744      4.616111     -0.218460
  H      -3.806560      3.339804     -0.131652
  H      -2.609051      1.182214      0.022872
  H      -2.633194     -1.256860      0.158814
  H      -6.140395     -4.620246      0.121170
  H      -8.244218     -3.348351      0.059889
  H      -9.451481     -1.186008     -0.082218
  H      -9.436306      1.240515     -0.220963
  H      -9.359671      3.172969      0.047449
  H      -2.689445     -3.250376     -0.229217
  H      -7.685741      5.578790     -0.916052
  H      -4.340083     -5.407711      1.211084
  H      -2.418184     -6.416905      1.183194
36
Coordinates from ORCA-job NC_OH_4 E -936.789213271179
  C      -7.208525      2.885480     -0.193090
  C      -5.950153      3.524927     -0.196116
  C      -4.765202      2.811716     -0.135352
  C      -4.773135      1.403886     -0.066145
  C      -3.561607      0.644414      0.014807
  C      -3.579258     -0.719601      0.083171
  C      -4.810132     -1.461652      0.067931
  C      -4.842020     -2.889257      0.129497
  C      -6.099660     -3.529143      0.122571
  C      -7.289002     -2.816261      0.074806
  C      -7.288705     -1.410610      0.010179
  C      -8.499454     -0.650232     -0.066103
  C      -8.485895      0.713590     -0.136573
  C      -7.254415      1.457067     -0.126869
  C      -6.025109      0.713563     -0.063364
  C      -6.038223     -0.720193      0.003428
  C      -8.436160      3.677161     -0.240442
  C      -3.605821     -3.675836      0.182778
  C      -8.544261      4.983753     -0.587029
  C      -3.494331     -4.908285      0.714998
  C      -9.792908      5.673792     -0.571422
  O      -2.325782     -5.592174      0.683698
  N     -10.802622      6.251626     -0.568027
  H      -5.905940      4.615725     -0.218770
  H      -3.808206      3.340173     -0.127080
  H      -2.609891      1.182698      0.026563
  H      -2.633430     -1.256349      0.159731
  H      -6.139657     -4.620695      0.119919
  H      -8.243833     -3.349399      0.063014
  H      -9.452110     -1.187400     -0.072591
  H      -9.437201      1.240261     -0.209886
  H      -9.364117      3.172648      0.036886
  H      -2.689436     -3.248940     -0.232508
  H      -7.680680      5.572943     -0.909690
  H      -4.337376     -5.409844      1.205678
  H      -2.414967     -6.417645      1.174672
36
Coordinates from ORCA-job NC_OH_4 E -936.789215651332
  C      -7.209156      2.885000     -0.193356
  C      -5.950868      3.524650     -0.196224
  C      -4.765875      2.811569     -0.135182
  C      -4.773709      1.403816     -0.065915
  C      -3.562073      0.644473      0.015097
  C      -3.579509     -0.719517      0.083398
  C      -4.810232     -1.461813      0.068099
  C      -4.841845     -2.889425      0.129500
  C      -6.099384     -3.529491      0.122774
  C      -7.288829     -2.816773      0.075295
  C      -7.288782     -1.411110      0.010719
  C      -8.499689     -0.650972     -0.065113
  C      -8.486462      0.712802     -0.135769
  C      -7.255057      1.456539     -0.126791
  C      -6.025573      0.713264     -0.063121
  C      -6.038441     -0.720525      0.003751
  C      -8.436700      3.676704     -0.241318
  C      -3.605489     -3.675774      0.182469
  C      -8.544825      4.984245     -0.586366
  C      -3.493631     -4.908346      0.714300
  C      -9.791477      5.677075     -0.572850
  O      -2.324941     -5.591986      0.682543
  N     -10.799821      6.257444     -0.571077
  H      -5.906855      4.615392     -0.218964
  H      -3.808927      3.340112     -0.126613
  H      -2.610433      1.182890      0.026999
  H      -2.633600     -1.256118      0.159975
  H      -6.139243     -4.621051      0.120042
  H      -8.243571     -3.350077      0.063718
  H      -9.452198     -1.188410     -0.070955
  H      -9.437786      1.239567     -0.208304
  H      -9.365312      3.171837      0.033357
  H      -2.689303     -3.248512     -0.232865
  H      -7.679433      5.572128     -0.906632
  H      -4.336464     -5.410312      1.204936
  H      -2.413730     -6.417387      1.173711
36
Coordinates from ORCA-job NC_OH_4 E -936.789215981770
  C      -7.209586      2.884843     -0.193839
  C      -5.951217      3.524481     -0.196734
  C      -4.766258      2.811453     -0.135700
  C      -4.774081      1.403706     -0.066309
  C      -3.562385      0.644480      0.014796
  C      -3.579677     -0.719496      0.083299
  C      -4.810317     -1.461904      0.068093
  C      -4.841779     -2.889520      0.129687
  C      -6.099256     -3.529708      0.123018
  C      -7.288748     -2.817089      0.075393
  C      -7.288817     -1.411429      0.010627
  C      -8.499784     -0.651441     -0.065397
  C      -8.486755      0.712302     -0.136215
  C      -7.255498      1.456294     -0.127147
  C      -6.025899      0.713099     -0.063444
  C      -6.038587     -0.720714      0.003613
  C      -8.436991      3.676416     -0.241752
  C      -3.605339     -3.675713      0.182758
  C      -8.544838      4.984793     -0.585126
  C      -3.493325     -4.908271      0.714589
  C      -9.790593      5.678563     -0.571945
  O      -2.324538     -5.591739      0.682811
  N     -10.798286      6.260170     -0.570453
  H      -5.907117      4.615193     -0.219463
  H      -3.809316      3.340006     -0.127201
  H      -2.610800      1.182994      0.026642
  H      -2.633720     -1.256000      0.159966
  H      -6.139037     -4.621270      0.120427
  H      -8.243440     -3.350485      0.063849
  H      -9.452194     -1.189058     -0.071261
  H      -9.438113      1.238981     -0.208920
  H      -9.365749      3.171186      0.031488
  H      -2.689214     -3.248300     -0.232553
  H      -7.678791      5.572433     -0.903843
  H      -4.336089     -5.410390      1.205185
  H      -2.413093     -6.416960      1.174331
36
Coordinates from ORCA-job NC_OH_4 E -936.789216067728
  C      -7.209688      2.884863     -0.194188
  C      -5.951233      3.524422     -0.197137
  C      -4.766312      2.811397     -0.136160
  C      -4.774151      1.403633     -0.066685
  C      -3.562446      0.644456      0.014481
  C      -3.579699     -0.719518      0.083143
  C      -4.810326     -1.461933      0.068005
  C      -4.841769     -2.889551      0.129787
  C      -6.099238     -3.529762      0.123162
  C      -7.288731     -2.817158      0.075384
  C      -7.288803     -1.411506      0.010434
  C      -8.499770     -0.651548     -0.065766
  C      -8.486779      0.712185     -0.136684
  C      -7.255589      1.456265     -0.127579
  C      -6.025967      0.713062     -0.063775
  C      -6.038603     -0.720755      0.003404
  C      -8.437080      3.676298     -0.241920
  C      -3.605322     -3.675707      0.183035
  C      -8.544839      4.985089     -0.584046
  C      -3.493312     -4.908229      0.714955
  C      -9.790519      5.678782     -0.570990
  O      -2.324508     -5.591669      0.683255
  N     -10.798048      6.260702     -0.569625
  H      -5.907000      4.615123     -0.219876
  H      -3.809360      3.339933     -0.127770
  H      -2.610879      1.183002      0.026257
  H      -2.633733     -1.255994      0.159881
  H      -6.139014     -4.621324      0.120734
  H      -8.243416     -3.350566      0.063867
  H      -9.452155     -1.189211     -0.071692
  H      -9.438155      1.238814     -0.209554
  H      -9.365895      3.170638      0.030238
  H      -2.689181     -3.248287     -0.232228
  H      -7.678636      5.573042     -0.901657
  H      -4.336093     -5.410356      1.205512
  H      -2.412974     -6.416726      1.175065
