36
Coordinates from ORCA-job NC_OH_2 E -936.788713690014
  C      -7.213700      2.889523     -0.259660
  C      -5.954912      3.529019     -0.260046
  C      -4.771203      2.820892     -0.156225
  C      -4.778643      1.415570     -0.046693
  C      -3.566670      0.661531      0.056579
  C      -3.580291     -0.700100      0.159909
  C      -4.807362     -1.448826      0.171815
  C      -4.837974     -2.876678      0.276660
  C      -6.099441     -3.512820      0.281253
  C      -7.285491     -2.804115      0.186496
  C      -7.285935     -1.400269      0.079581
  C      -8.497139     -0.646161     -0.021058
  C      -8.487567      0.715450     -0.127985
  C      -7.258738      1.462080     -0.143821
  C      -6.028267      0.722389     -0.039105
  C      -6.036961     -0.709609      0.071500
  C      -8.439267      3.674003     -0.379905
  C      -3.601919     -3.653503      0.376177
  C      -8.542041      5.021736     -0.508908
  C      -3.495663     -4.995271      0.450242
  C      -9.800845      5.680457     -0.624709
  O      -2.284987     -5.596082      0.540461
  N     -10.819117      6.235375     -0.720805
  H      -5.905788      4.616127     -0.345192
  H      -3.814468      3.349775     -0.159947
  H      -2.615783      1.201261      0.050339
  H      -2.628169     -1.224053      0.235429
  H      -6.153814     -4.600165      0.364083
  H      -8.240344     -3.337193      0.194878
  H      -9.448469     -1.185617     -0.011381
  H      -9.442374      1.234870     -0.201706
  H      -9.382290      3.125661     -0.369241
  H      -2.649798     -3.121396      0.392260
  H      -7.665135      5.674734     -0.533753
  H      -4.362930     -5.665060      0.440485
  H      -2.394285     -6.553534      0.581991
36
Coordinates from ORCA-job NC_OH_2 E -936.788718834278
  C      -7.212432      2.889435     -0.266583
  C      -5.953645      3.528889     -0.267061
  C      -4.769868      2.820514     -0.165230
  C      -4.777357      1.415127     -0.055953
  C      -3.565597      0.660884      0.049363
  C      -3.579675     -0.700609      0.154824
  C      -4.806876     -1.449098      0.166918
  C      -4.838069     -2.876521      0.276773
  C      -6.099591     -3.512431      0.280659
  C      -7.285271     -2.803960      0.180477
  C      -7.285298     -1.400419      0.070041
  C      -8.496231     -0.646231     -0.033392
  C      -8.486265      0.715318     -0.140553
  C      -7.257369      1.461788     -0.154739
  C      -6.027024      0.721977     -0.049598
  C      -6.036183     -0.709932      0.062608
  C      -8.438895      3.673839     -0.378057
  C      -3.602468     -3.653096      0.383625
  C      -8.543911      5.022298     -0.497290
  C      -3.496756     -4.994715      0.461400
  C      -9.804390      5.680357     -0.598908
  O      -2.286890     -5.595715      0.560485
  N     -10.823965      6.234831     -0.683325
  H      -5.904615      4.616222     -0.349191
  H      -3.813126      3.349429     -0.168197
  H      -2.614563      1.200385      0.043819
  H      -2.627750     -1.224809      0.231823
  H      -6.154316     -4.599389      0.367966
  H      -8.240219     -3.336890      0.188690
  H      -9.447682     -1.185492     -0.024658
  H      -9.440889      1.235018     -0.215362
  H      -9.381424      3.124618     -0.365289
  H      -2.650459     -3.120807      0.403885
  H      -7.667915      5.676572     -0.521479
  H      -4.364097     -5.664339      0.448376
  H      -2.396698     -6.553047      0.603131
