! B3LYP def2-SVP Opt PAL8 FREQ defgrid3 slowconv VeryTightSCF
*xyz 0 1
  C      -7.213700      2.889523     -0.259660
  C      -5.954912      3.529019     -0.260046
  C      -4.771203      2.820892     -0.156225
  C      -4.778643      1.415570     -0.046693
  C      -3.566670      0.661531      0.056579
  C      -3.580291     -0.700100      0.159909
  C      -4.807362     -1.448826      0.171815
  C      -4.837974     -2.876678      0.276660
  C      -6.099441     -3.512820      0.281253
  C      -7.285491     -2.804115      0.186496
  C      -7.285935     -1.400269      0.079581
  C      -8.497139     -0.646161     -0.021058
  C      -8.487567      0.715450     -0.127985
  C      -7.258738      1.462080     -0.143821
  C      -6.028267      0.722389     -0.039105
  C      -6.036961     -0.709609      0.071500
  C      -8.439267      3.674003     -0.379905
  C      -3.601919     -3.653503      0.376177
  C      -8.542041      5.021736     -0.508908
  C      -3.495663     -4.995271      0.450242
  C      -9.800845      5.680457     -0.624709
  O      -2.284987     -5.596082      0.540461
  N     -10.819117      6.235375     -0.720805
  H      -5.905788      4.616127     -0.345192
  H      -3.814468      3.349775     -0.159947
  H      -2.615783      1.201261      0.050339
  H      -2.628169     -1.224053      0.235429
  H      -6.153814     -4.600165      0.364083
  H      -8.240344     -3.337193      0.194878
  H      -9.448469     -1.185617     -0.011381
  H      -9.442374      1.234870     -0.201706
  H      -9.382290      3.125661     -0.369241
  H      -2.649798     -3.121396      0.392260
  H      -7.665135      5.674734     -0.533753
  H      -4.362930     -5.665060      0.440485
  H      -2.394285     -6.553534      0.581991
*
