43
Energy =
O     0.9409811   -0.0063137   -2.1605944 
N    -3.5069917   -0.0092506   -0.3433371 
N     0.6130586    0.0078499   -5.6449797 
N    -3.4889139    0.0057561   -4.0325927 
N    -0.0038732    0.0139715    8.0115712 
C    -0.3888869   -0.0047752   -2.3010978 
C    -1.0063017   -0.0088727   -0.9888591 
C    -0.0076788   -0.0113559   -0.0270593 
C     1.3320131   -0.0090714   -0.7556815 
C    -0.9404086    0.0006447   -3.5689429 
C    -0.0782995    0.0045599   -4.7104408 
C    -2.3499996    0.0032130   -3.7990151 
C    -2.3966422   -0.0090679   -0.6866431 
C     0.1581834    0.0049696    6.6499452 
C     1.4496386    0.0045299    6.0535640 
H     2.3449084    0.0104390    6.6737949 
C     1.5952022   -0.0029384    4.6759377 
H     2.6050479   -0.0021939    4.2545963 
C     0.4866802   -0.0102065    3.7967120 
C    -0.7971930   -0.0116557    4.3956361 
H    -1.6918476   -0.0182672    3.7689854 
C    -0.9628097   -0.0042579    5.7685659 
H    -1.9753955   -0.0052162    6.1691541 
C     1.1563239    0.0261634    8.8858508 
H     3.0058372    1.2747082   -1.2275302 
H     2.5324813    1.3242843    0.4945500 
H     1.5373858    2.1601599   -0.7284297 
C    -1.3364673    0.0165022    8.5921162 
H    -1.2557826    0.0214781    9.6862538 
C     2.1511835    1.2682159   -0.5346590 
H    -1.9167622    0.9078524    8.2925894 
C    -0.2384386   -0.0139915    1.3818911 
H    -1.2948146   -0.0154205    1.6655466 
C     0.7104281   -0.0125255    2.3693141 
H     1.7655037   -0.0110147    2.0804835 
C     2.1523656   -1.2862307   -0.5390761 
H     1.5397354   -2.1779413   -0.7375273 
H     2.5319123   -1.3460455    0.4906011 
H     3.0081731   -1.2889853   -1.2305294 
H     1.7847570    0.9208676    8.7262345 
H     0.8236439    0.0315355    9.9311028 
H     1.7938105   -0.8641346    8.7386566 
H    -1.9160474   -0.8779881    8.3011017 
