38
Coordinates from ORCA-job NO2_NH2_2 E -1029.083768022931
  C      -7.121715      2.887296     -0.261826
  C      -5.863942      3.531765     -0.263353
  C      -4.679833      2.825833     -0.166207
  C      -4.685924      1.418418     -0.060302
  C      -3.474150      0.666491      0.041338
  C      -3.487850     -0.696529      0.144098
  C      -4.710156     -1.449231      0.155569
  C      -4.734470     -2.880798      0.263709
  C      -6.000626     -3.514118      0.261900
  C      -7.184836     -2.806069      0.163491
  C      -7.189267     -1.401036      0.058185
  C      -8.399836     -0.649694     -0.043499
  C      -8.393647      0.713527     -0.145503
  C      -7.166053      1.458360     -0.155408
  C      -5.933667      0.721056     -0.054041
  C      -5.940233     -0.711244      0.053422
  C      -8.345873      3.665320     -0.367266
  C      -3.504791     -3.655806      0.372429
  C      -8.459327      5.004072     -0.482293
  C      -3.413434     -5.009243      0.482586
  N      -2.257571     -5.724337      0.584791
  N      -9.768568      5.623486     -0.577466
  O      -9.774053      6.845812     -0.681613
  O     -10.773400      4.922175     -0.550621
  H      -5.821544      4.619808     -0.342913
  H      -3.723394      3.355173     -0.170596
  H      -2.523621      1.206874      0.035331
  H      -2.533406     -1.216833      0.218876
  H      -6.058126     -4.601479      0.340876
  H      -8.139095     -3.340638      0.167238
  H      -9.350449     -1.190710     -0.038422
  H      -9.347030      1.235308     -0.220801
  H      -9.303678      3.142749     -0.356385
  H      -2.559564     -3.109092      0.367505
  H      -7.663613      5.744852     -0.518601
  H      -4.311103     -5.634267      0.496409
  H      -2.272585     -6.729934      0.664411
  H      -1.355119     -5.267318      0.584951
38
Coordinates from ORCA-job NO2_NH2_2 E -1029.083769118037
  C      -7.120688      2.887682     -0.262923
  C      -5.862910      3.532296     -0.263904
  C      -4.678852      2.826435     -0.164958
  C      -4.685026      1.418950     -0.058090
  C      -3.473371      0.666792      0.045020
  C      -3.487438     -0.696261      0.148225
  C      -4.709912     -1.448667      0.159280
  C      -4.734538     -2.880240      0.266808
  C      -6.000789     -3.513464      0.266048
  C      -7.184948     -2.805331      0.167559
  C      -7.189172     -1.400281      0.061213
  C      -8.399606     -0.648735     -0.041981
  C      -8.393006      0.714402     -0.145590
  C      -7.165209      1.458879     -0.155415
  C      -5.932914      0.721615     -0.052266
  C      -5.939935     -0.710602      0.056466
  C      -8.345163      3.664859     -0.369525
  C      -3.504973     -3.655635      0.372219
  C      -8.460023      5.003556     -0.484420
  C      -3.414283     -5.009351      0.479664
  N      -2.258638     -5.725554      0.577521
  N      -9.770154      5.621135     -0.580997
  O      -9.777569      6.843580     -0.683982
  O     -10.773858      4.918177     -0.556163
  H      -5.820522      4.620251     -0.344336
  H      -3.722441      3.355843     -0.168642
  H      -2.522699      1.206934      0.039551
  H      -2.533144     -1.216851      0.223617
  H      -6.058262     -4.600795      0.345154
  H      -8.139215     -3.339892      0.171267
  H      -9.350354     -1.189516     -0.037099
  H      -9.346216      1.236468     -0.221969
  H      -9.302540      3.141391     -0.359318
  H      -2.559404     -3.109384      0.365685
  H      -7.665377      5.745502     -0.519537
  H      -4.312384     -5.633745      0.494299
  H      -2.274153     -6.731272      0.655221
  H      -1.355865     -5.269172      0.576297
