38
Coordinates from ORCA-job NO2_NH2 E -1028.910250756144
  C      -7.124680      2.738264     -0.255765
  C      -5.923520      3.349613     -0.257371
  C      -4.776417      2.669970     -0.162584
  C      -4.796981      1.334931     -0.061303
  C      -3.638721      0.668810      0.033511
  C      -3.633823     -0.664679      0.136532
  C      -4.771317     -1.388092      0.149270
  C      -4.770883     -2.745842      0.254684
  C      -5.968669     -3.362797      0.255382
  C      -7.116233     -2.684200      0.158112
  C      -7.096362     -1.348812      0.056426
  C      -8.254144     -0.682486     -0.039364
  C      -8.258998      0.651192     -0.141208
  C      -7.123641      1.379011     -0.152856
  C      -5.967332      0.671169     -0.054916
  C      -5.927907     -0.681713      0.050301
  C      -8.247375      3.493677     -0.354049
  C      -3.652041     -3.503172      0.358008
  C      -8.374570      4.833184     -0.459494
  C      -3.549357     -4.839479      0.466465
  N      -2.424145     -5.416177      0.556365
  N      -9.473336      5.435730     -0.544580
  O      -9.504650      6.746315     -0.643979
  O     -10.645519      4.843550     -0.542156
  H      -5.796629      4.439206     -0.335313
  H      -3.823789      3.228232     -0.169090
  H      -2.673091      1.204699      0.028670
  H      -2.626572     -1.098229      0.208038
  H      -6.084938     -4.453961      0.335179
  H      -8.068037     -3.243687      0.164124
  H      -9.219420     -1.219135     -0.035687
  H      -9.268795      1.078542     -0.212855
  H      -9.221226      2.987170     -0.351218
  H      -2.662335     -3.023429      0.360162
  H      -7.480963      5.475282     -0.475291
  H      -4.377702     -5.558605      0.489696
  H      -2.363070     -6.460902      0.640457
  H      -1.538360     -4.853151      0.547696
38
Coordinates from ORCA-job NO2_NH2 E -1029.013248550752
  C      -7.137010      2.801562     -0.260976
  C      -5.907290      3.422061     -0.262205
  C      -4.744551      2.730849     -0.165998
  C      -4.761556      1.364422     -0.062229
  C      -3.581502      0.669664      0.035525
  C      -3.583783     -0.681162      0.139553
  C      -4.750379     -1.416794      0.152140
  C      -4.756143     -2.805475      0.259684
  C      -5.984151     -3.429064      0.259717
  C      -7.147820     -2.737850      0.160923
  C      -7.133600     -1.372262      0.056752
  C      -8.313150     -0.677576     -0.041959
  C      -8.312493      0.673564     -0.144877
  C      -7.147021      1.411062     -0.156124
  C      -5.963644      0.687619     -0.056031
  C      -5.933978     -0.694512      0.050990
  C      -8.287915      3.568169     -0.361189
  C      -3.604894     -3.575624      0.365291
  C      -8.422050      4.916837     -0.467685
  C      -3.491439     -4.924398      0.475233
  N      -2.337039     -5.529713      0.568618
  N      -9.569672      5.532168     -0.555626
  O      -9.595338      6.819258     -0.653204
  O     -10.706890      4.923210     -0.550732
  H      -5.786769      4.509929     -0.340245
  H      -3.793798      3.285360     -0.172318
  H      -2.616343      1.198994      0.031146
  H      -2.584208     -1.126652      0.211628
  H      -6.096954     -4.518039      0.339447
  H      -8.097795     -3.293910      0.166765
  H      -9.277930     -1.207865     -0.038722
  H      -9.314038      1.114177     -0.217163
  H      -9.258705      3.058812     -0.358053
  H      -2.621339     -3.086477      0.366450
  H      -7.539419      5.568058     -0.484587
  H      -4.326910     -5.634384      0.497513
  H      -2.281955     -6.559588      0.651405
  H      -1.456078     -4.984432      0.561141
38
Coordinates from ORCA-job NO2_NH2 E -1029.066428019193
  C      -7.140130      2.856568     -0.265065
  C      -5.888221      3.487504     -0.266255
  C      -4.711388      2.786280     -0.168844
  C      -4.723810      1.392989     -0.062930
  C      -3.525598      0.668726      0.037636
  C      -3.535747     -0.695324      0.142277
  C      -4.731692     -1.439133      0.154390
  C      -4.745330     -2.853327      0.263542
  C      -5.997844     -3.483731      0.263164
  C      -7.175792     -2.781558      0.163114
  C      -7.169082     -1.389995      0.056750
  C      -8.366675     -0.665926     -0.044744
  C      -8.360339      0.698468     -0.148365
  C      -7.163688      1.440773     -0.158821
  C      -5.954780      0.705226     -0.056953
  C      -5.940261     -0.704150      0.051449
  C      -8.323361      3.627963     -0.366922
  C      -3.560278     -3.630086      0.370994
  C      -8.458873      4.978497     -0.473860
  C      -3.446033     -4.985084      0.481611
  N      -2.273522     -5.626441      0.578658
  N      -9.662672      5.596121     -0.564225
  O      -9.678216      6.845511     -0.658979
  O     -10.737148      4.952343     -0.554447
  H      -5.784865      4.574287     -0.344830
  H      -3.762072      3.334180     -0.174776
  H      -2.563062      1.193234      0.033488
  H      -2.549286     -1.161626      0.215352
  H      -6.097718     -4.570963      0.343199
  H      -8.124190     -3.331808      0.168618
  H      -9.328968     -1.191362     -0.041732
  H      -9.347976      1.161763     -0.221739
  H      -9.289229      3.112305     -0.363126
  H      -2.586200     -3.126824      0.370620
  H      -7.595700      5.647291     -0.492922
  H      -4.297100     -5.674715      0.501793
  H      -2.233840     -6.639469      0.659691
  H      -1.394861     -5.108508      0.573189
38
Coordinates from ORCA-job NO2_NH2 E -1029.081457774118
  C      -7.134318      2.890542     -0.266003
  C      -5.871353      3.530046     -0.267419
  C      -4.686512      2.822997     -0.169427
  C      -4.693874      1.413678     -0.062326
  C      -3.484829      0.666192      0.039932
  C      -3.500517     -0.702696      0.144215
  C      -4.718375     -1.450721      0.155754
  C      -4.739357     -2.881052      0.265295
  C      -6.006277     -3.515715      0.264713
  C      -7.191969     -2.806949      0.164627
  C      -7.193443     -1.399944      0.057304
  C      -8.401606     -0.652770     -0.045690
  C      -8.392166      0.716396     -0.149190
  C      -7.171318      1.459528     -0.158929
  C      -5.943512      0.718583     -0.056345
  C      -5.944973     -0.709700      0.052332
  C      -8.346590      3.662070     -0.369751
  C      -3.524465     -3.657495      0.373489
  C      -8.475715      5.008460     -0.477894
  C      -3.417955     -5.013376      0.483930
  N      -2.242532     -5.694400      0.584154
  N      -9.735010      5.625671     -0.571688
  O      -9.737020      6.849932     -0.666282
  O     -10.754261      4.941783     -0.556455
  H      -5.795023      4.616641     -0.347064
  H      -3.736151      3.362372     -0.174962
  H      -2.526527      1.191620      0.035402
  H      -2.530965     -1.196201      0.218297
  H      -6.085371     -4.601993      0.344936
  H      -8.141058     -3.349794      0.169637
  H      -9.359896     -1.178931     -0.042353
  H      -9.361964      1.208658     -0.223789
  H      -9.305797      3.139244     -0.365053
  H      -2.563756     -3.134719      0.370886
  H      -7.637224      5.701442     -0.500512
  H      -4.291053     -5.672900      0.501135
  H      -2.226311     -6.699478      0.663841
  H      -1.356502     -5.207023      0.581251
38
Coordinates from ORCA-job NO2_NH2 E -1029.083131333134
  C      -7.129273      2.894530     -0.264768
  C      -5.866710      3.536962     -0.266327
  C      -4.681058      2.829849     -0.168451
  C      -4.685931      1.418799     -0.061374
  C      -3.474526      0.665499      0.040979
  C      -3.490395     -0.701574      0.144611
  C      -4.713501     -1.451584      0.156001
  C      -4.736732     -2.884972      0.265098
  C      -6.005268     -3.520281      0.264367
  C      -7.191439     -2.811201      0.165042
  C      -7.196627     -1.402556      0.058082
  C      -8.406958     -0.649630     -0.044714
  C      -8.398351      0.717679     -0.147730
  C      -7.171122      1.461414     -0.157510
  C      -5.938121      0.721428     -0.055208
  C      -5.944795     -0.711296      0.053084
  C      -8.351643      3.666745     -0.369774
  C      -3.511020     -3.659822      0.373284
  C      -8.473232      5.009822     -0.479388
  C      -3.412153     -5.014518      0.483369
  N      -2.243154     -5.715108      0.584818
  N      -9.756874      5.631486     -0.575514
  O      -9.755367      6.856283     -0.672125
  O     -10.768466      4.935895     -0.557682
  H      -5.807103      4.624174     -0.346573
  H      -3.728381      3.365036     -0.173796
  H      -2.518923      1.195870      0.035889
  H      -2.529088     -1.209331      0.219121
  H      -6.071915     -4.607006      0.344409
  H      -8.142521     -3.350526      0.169758
  H      -9.362672     -1.180581     -0.040759
  H      -9.359503      1.224997     -0.222817
  H      -9.308191      3.141488     -0.364261
  H      -2.557819     -3.125762      0.369447
  H      -7.647732      5.717697     -0.504888
  H      -4.298043     -5.656243      0.498815
  H      -2.242202     -6.720446      0.664078
  H      -1.348739     -5.243218      0.583406
38
Coordinates from ORCA-job NO2_NH2 E -1029.083655248416
  C      -7.125110      2.891870     -0.263386
  C      -5.865234      3.535790     -0.264993
  C      -4.680315      2.829623     -0.167393
  C      -4.684206      1.420149     -0.060699
  C      -3.472229      0.665920      0.041410
  C      -3.486926     -0.698401      0.144489
  C      -4.710898     -1.450231      0.155921
  C      -4.734930     -2.883549      0.264533
  C      -6.002370     -3.518392      0.263543
  C      -7.187511     -2.810150      0.164942
  C      -7.194290     -1.403070      0.058629
  C      -8.405043     -0.649273     -0.043619
  C      -8.398102      0.715261     -0.146171
  C      -7.169234      1.459890     -0.156231
  C      -5.934890      0.721875     -0.054372
  C      -5.943164     -0.711751      0.053543
  C      -8.351755      3.665938     -0.369221
  C      -3.503931     -3.657484      0.372764
  C      -8.466543      5.006528     -0.480253
  C      -3.411306     -5.011155      0.482628
  N      -2.250262     -5.724321      0.584719
  N      -9.765895      5.630976     -0.577547
  O      -9.765806      6.854287     -0.676399
  O     -10.774155      4.933155     -0.557708
  H      -5.818184      4.623520     -0.345426
  H      -3.725421      3.361442     -0.172427
  H      -2.519449      1.202025      0.035776
  H      -2.531081     -1.215850      0.219298
  H      -6.060401     -4.605555      0.343273
  H      -8.140533     -3.346668      0.169352
  H      -9.358020     -1.185838     -0.038928
  H      -9.353478      1.233000     -0.221443
  H      -9.307524      3.140052     -0.362584
  H      -2.556370     -3.114779      0.368045
  H      -7.653642      5.728685     -0.508960
  H      -4.306175     -5.640053      0.496797
  H      -2.261168     -6.729576      0.663691
  H      -1.349997     -5.263892      0.584407
38
Coordinates from ORCA-job NO2_NH2 E -1029.083777188726
  C      -7.122745      2.888647     -0.262588
  C      -5.864808      3.532930     -0.264163
  C      -4.680645      2.827228     -0.166771
  C      -4.685148      1.419542     -0.060469
  C      -3.473369      0.666478      0.041389
  C      -3.487152     -0.696386      0.144233
  C      -4.710217     -1.449089      0.155748
  C      -4.734373     -2.881343      0.264087
  C      -6.000615     -3.515325      0.262793
  C      -7.184844     -2.807531      0.164477
  C      -7.191060     -1.402201      0.058679
  C      -8.401560     -0.649626     -0.043163
  C      -8.395540      0.713444     -0.145453
  C      -7.167270      1.458510     -0.155681
  C      -5.933735      0.721497     -0.054106
  C      -5.941505     -0.711496      0.053605
  C      -8.349378      3.664659     -0.368622
  C      -3.502713     -3.655424      0.372484
  C      -8.461548      5.004006     -0.480813
  C      -3.412390     -5.008766      0.482364
  N      -2.255998     -5.725758      0.584612
  N      -9.767964      5.627487     -0.577956
  O      -9.770514      6.850368     -0.678398
  O     -10.774491      4.927864     -0.555905
  H      -5.822797      4.620884     -0.344413
  H      -3.724520      3.357155     -0.171493
  H      -2.522331      1.206001      0.035457
  H      -2.533271     -1.217458      0.219147
  H      -6.056045     -4.602669      0.342232
  H      -8.138937     -3.342456      0.168618
  H      -9.352808     -1.189585     -0.038027
  H      -9.348714      1.235352     -0.220713
  H      -9.305567      3.139496     -0.360817
  H      -2.557604     -3.108815      0.367433
  H      -7.657775      5.736187     -0.512218
  H      -4.310571     -5.632892      0.496045
  H      -2.271813     -6.731318      0.663616
  H      -1.353211     -5.269601      0.584751
38
Coordinates from ORCA-job NO2_NH2 E -1029.083795774955
  C      -7.122052      2.887441     -0.262251
  C      -5.864547      3.531784     -0.263807
  C      -4.680553      2.826042     -0.166509
  C      -4.685885      1.418883     -0.060402
  C      -3.474206      0.666673      0.041331
  C      -3.487758     -0.696046      0.144137
  C      -4.710205     -1.448894      0.155677
  C      -4.734368     -2.880594      0.263912
  C      -6.000298     -3.514137      0.262401
  C      -7.184346     -2.806307      0.164087
  C      -7.189627     -1.401495      0.058543
  C      -8.400041     -0.649818     -0.043157
  C      -8.394124      0.713107     -0.145337
  C      -7.166421      1.458185     -0.155531
  C      -5.933647      0.721212     -0.054062
  C      -5.940692     -0.711282      0.053562
  C      -8.347544      3.664552     -0.368144
  C      -3.503580     -3.655119      0.372436
  C      -8.459878      5.003555     -0.481263
  C      -3.413105     -5.008490      0.482391
  N      -2.257719     -5.725007      0.584594
  N      -9.768060      5.625166     -0.577735
  O      -9.772235      6.847687     -0.679535
  O     -10.773607      4.924634     -0.554099
  H      -5.822912      4.619804     -0.343816
  H      -3.724103      3.355442     -0.171066
  H      -2.523662      1.207118      0.035314
  H      -2.533858     -1.217222      0.219016
  H      -6.056297     -4.601520      0.341637
  H      -8.138696     -3.340815      0.168056
  H      -9.350759     -1.190750     -0.037932
  H      -9.347164      1.235419     -0.220567
  H      -9.304364      3.140402     -0.359343
  H      -2.558759     -3.107916      0.367394
  H      -7.660436      5.740420     -0.514518
  H      -4.311412     -5.632515      0.496055
  H      -2.273846     -6.730610      0.663745
  H      -1.354780     -5.268990      0.584785
38
Coordinates from ORCA-job NO2_NH2 E -1029.083800136593
  C      -7.121824      2.887210     -0.262046
  C      -5.864224      3.531613     -0.263591
  C      -4.680183      2.825750     -0.166359
  C      -4.686052      1.418534     -0.060359
  C      -3.474341      0.666625      0.041320
  C      -3.487938     -0.696257      0.144117
  C      -4.710203     -1.449046      0.155631
  C      -4.734433     -2.880590      0.263812
  C      -6.000439     -3.513959      0.262129
  C      -7.184560     -2.805998      0.163757
  C      -7.189232     -1.401142      0.058355
  C      -8.399710     -0.649798     -0.043321
  C      -8.393659      0.713288     -0.145416
  C      -7.166123      1.458247     -0.155479
  C      -5.933685      0.721089     -0.054059
  C      -5.940342     -0.711218      0.053491
  C      -8.346437      3.664929     -0.367717
  C      -3.504389     -3.655441      0.372449
  C      -8.459426      5.003784     -0.481791
  C      -3.413379     -5.008862      0.482498
  N      -2.257853     -5.724466      0.584687
  N      -9.768235      5.623968     -0.577592
  O      -9.773293      6.846380     -0.680464
  O     -10.773288      4.922885     -0.552206
  H      -5.822132      4.619648     -0.343371
  H      -3.723703      3.355056     -0.170818
  H      -2.523868      1.207148      0.035295
  H      -2.533716     -1.216933      0.218944
  H      -6.057358     -4.601334      0.341215
  H      -8.138894     -3.340479      0.167596
  H      -9.350310     -1.190883     -0.038148
  H      -9.346904      1.235303     -0.220665
  H      -9.303819      3.141670     -0.357893
  H      -2.559373     -3.108444      0.367484
  H      -7.662371      5.743179     -0.516636
  H      -4.311301     -5.633501      0.496233
  H      -2.273369     -6.730096      0.664052
  H      -1.355178     -5.267860      0.584864
38
Coordinates from ORCA-job NO2_NH2 E -1029.083801275345
  C      -7.121715      2.887296     -0.261826
  C      -5.863942      3.531765     -0.263353
  C      -4.679833      2.825833     -0.166207
  C      -4.685924      1.418418     -0.060302
  C      -3.474150      0.666491      0.041338
  C      -3.487850     -0.696529      0.144098
  C      -4.710156     -1.449231      0.155569
  C      -4.734470     -2.880798      0.263709
  C      -6.000626     -3.514118      0.261900
  C      -7.184836     -2.806069      0.163491
  C      -7.189267     -1.401036      0.058185
  C      -8.399836     -0.649694     -0.043499
  C      -8.393647      0.713527     -0.145503
  C      -7.166053      1.458360     -0.155408
  C      -5.933667      0.721056     -0.054041
  C      -5.940233     -0.711244      0.053422
  C      -8.345873      3.665320     -0.367266
  C      -3.504791     -3.655806      0.372429
  C      -8.459327      5.004072     -0.482293
  C      -3.413434     -5.009243      0.482586
  N      -2.257571     -5.724337      0.584791
  N      -9.768568      5.623486     -0.577466
  O      -9.774053      6.845812     -0.681613
  O     -10.773400      4.922175     -0.550621
  H      -5.821544      4.619808     -0.342913
  H      -3.723394      3.355173     -0.170596
  H      -2.523621      1.206874      0.035331
  H      -2.533406     -1.216833      0.218876
  H      -6.058126     -4.601479      0.340876
  H      -8.139095     -3.340638      0.167238
  H      -9.350449     -1.190710     -0.038422
  H      -9.347030      1.235308     -0.220801
  H      -9.303678      3.142749     -0.356385
  H      -2.559564     -3.109092      0.367505
  H      -7.663613      5.744852     -0.518601
  H      -4.311103     -5.634267      0.496409
  H      -2.272585     -6.729934      0.664411
  H      -1.355119     -5.267318      0.584951
