! B3LYP def2-SVP Opt PAL8 FREQ defgrid3 slowconv VeryTightSCF
*xyz 0 1
  C      -7.121715      2.887296     -0.261826
  C      -5.863942      3.531765     -0.263353
  C      -4.679833      2.825833     -0.166207
  C      -4.685924      1.418418     -0.060302
  C      -3.474150      0.666491      0.041338
  C      -3.487850     -0.696529      0.144098
  C      -4.710156     -1.449231      0.155569
  C      -4.734470     -2.880798      0.263709
  C      -6.000626     -3.514118      0.261900
  C      -7.184836     -2.806069      0.163491
  C      -7.189267     -1.401036      0.058185
  C      -8.399836     -0.649694     -0.043499
  C      -8.393647      0.713527     -0.145503
  C      -7.166053      1.458360     -0.155408
  C      -5.933667      0.721056     -0.054041
  C      -5.940233     -0.711244      0.053422
  C      -8.345873      3.665320     -0.367266
  C      -3.504791     -3.655806      0.372429
  C      -8.459327      5.004072     -0.482293
  C      -3.413434     -5.009243      0.482586
  N      -2.257571     -5.724337      0.584791
  N      -9.768568      5.623486     -0.577466
  O      -9.774053      6.845812     -0.681613
  O     -10.773400      4.922175     -0.550621
  H      -5.821544      4.619808     -0.342913
  H      -3.723394      3.355173     -0.170596
  H      -2.523621      1.206874      0.035331
  H      -2.533406     -1.216833      0.218876
  H      -6.058126     -4.601479      0.340876
  H      -8.139095     -3.340638      0.167238
  H      -9.350449     -1.190710     -0.038422
  H      -9.347030      1.235308     -0.220801
  H      -9.303678      3.142749     -0.356385
  H      -2.559564     -3.109092      0.367505
  H      -7.663613      5.744852     -0.518601
  H      -4.311103     -5.634267      0.496409
  H      -2.272585     -6.729934      0.664411
  H      -1.355119     -5.267318      0.584951
*
