60
Energy =
C     2.0839471   -0.5115845    0.1892305 
C     2.3820190    2.3293006    2.2617636 
C     0.9050508    0.4240351    0.4743602 
C     1.7260788    1.0339635    2.7492745 
C    -0.6297486    0.3175154    2.4257144 
C    -0.8265528    0.0463625    3.8100908 
C    -1.8003809    0.3013516    1.6080661 
C    -3.0523444    0.0352836    2.1334858 
C    -2.0881246   -0.2149764    4.3228862 
C    -3.2471500   -0.2335136    3.5109150 
C    -4.5351254   -0.5114252    4.1057279 
C    -5.7450857   -0.5877644    3.4740805 
C    -7.0065995   -0.8553904    4.0990207 
C    -8.2449901   -0.9443492    3.4454505 
C    -9.3158127   -1.2159690    4.3042084 
C    -8.9445236   -1.3451665    5.6496315 
C    -9.8176814   -1.6170082    6.7325290 
C    -9.4676554   -1.7437540    8.0621319 
C   -12.6328227   -0.9806813    8.6583620 
C   -10.3429584   -2.0150938    9.1412960 
C    -9.9555679   -2.1365677   10.4772082 
C   -11.8517902   -2.2274470    9.0844099 
C   -12.2675456   -3.4878235    8.3199020 
C   -11.1250759   -2.4140330   11.2734962 
C   -11.2796024   -2.6181090   12.6415425 
N     0.6170034    0.5863233    1.9022599 
S    -7.2052963   -1.1168581    5.8198602 
C    -8.6192746   -2.0025977   10.9371132 
O   -12.1993053   -2.4673021   10.4891958 
C   -10.1909502   -2.5777170   13.5591898 
C   -12.5799232   -2.8794211   13.1680754 
N    -7.5043403   -1.8807343   11.2453008 
N    -9.3315698   -2.5529401   14.3434602 
N   -13.6350069   -3.0933251   13.6098653 
H     2.1831005   -0.6497356   -0.8991739 
H     3.0419145   -0.1155833    0.5591937 
H     1.9208162   -1.5007047    0.6469160 
H     3.1417980    2.6495133    2.9922430 
H     2.8880418    2.2135682    1.2909744 
H     1.6363154    3.1351782    2.1670812 
H     0.0174684    0.0055382   -0.0119306 
H     1.0831282    1.4074326    0.0019789 
H     1.3380046    1.2112392    3.7581450 
H     2.4885705    0.2388275    2.8445247 
H     0.0244340    0.0066340    4.4891760 
H    -1.7297516    0.5396381    0.5471544 
H    -3.9087291    0.0569007    1.4550741 
H    -2.1857926   -0.4309712    5.3909219 
H    -4.5123375   -0.6761085    5.1901154 
H    -5.8058479   -0.4378691    2.3914962 
H    -8.3400486   -0.8113003    2.3662981 
H   -10.3525607   -1.3213224    3.9775584 
H   -10.8638970   -1.7289555    6.4353710 
H    -8.4132116   -1.6264913    8.3327341 
H   -12.4616169   -0.7527404    7.5972400 
H   -13.7081876   -1.1580448    8.8086404 
H   -12.3305624   -0.1090952    9.2573052 
H   -12.0849214   -3.3725906    7.2425616 
H   -11.7072636   -4.3636404    8.6790484 
H   -13.3418776   -3.6671700    8.4748273 
