44
Coordinates from ORCA-job pyrene_deriv_p1_reopt_freq E -1107.585081149682
  C      -1.787433      3.717463     -0.063191
  C      -0.529691      4.361386     -0.025939
  C       0.655084      3.651330      0.016014
  C       0.649835      2.239631      0.022619
  C       1.862240      1.483132      0.070896
  C       1.849320      0.116175      0.075661
  C       0.627694     -0.636333      0.030067
  C       0.605150     -2.072624      0.030315
  C      -0.661685     -2.704458      0.001341
  C      -1.846991     -1.992121     -0.032743
  C      -1.852374     -0.582980     -0.041878
  C      -3.063884      0.172983     -0.082290
  C      -3.058619      1.540034     -0.090558
  C      -1.831050      2.284528     -0.057904
  C      -0.597677      1.542711     -0.015702
  C      -0.603225      0.106242     -0.009686
  C      -3.012094      4.500751     -0.106288
  C       1.839217     -2.849758      0.048881
  C      -3.126773      5.844306     -0.091090
  C       1.921282     -4.209556      0.138200
  N       3.062550     -4.959961      0.212785
  C       3.005978     -6.390811     -0.015448
  C       4.360763     -4.323826      0.147598
  N      -4.435596      6.469575     -0.140948
  O      -4.442056      7.696132     -0.113648
  O      -5.439379      5.769181     -0.205860
  H      -0.487919      5.452329     -0.032074
  H       1.611317      4.180291      0.044305
  H       2.812103      2.023459      0.107814
  H       2.803491     -0.407832      0.122319
  H      -0.718795     -3.794535     -0.002900
  H      -2.801177     -2.526251     -0.057963
  H      -4.014259     -0.367903     -0.106924
  H      -4.012560      2.065267     -0.121360
  H      -3.968808      3.978491     -0.157143
  H       2.773364     -2.295459     -0.015889
  H      -2.332424      6.585680     -0.040213
  H       1.011163     -4.814418      0.178666
  H       1.997716     -6.766436      0.212456
  H       3.242043     -6.665295     -1.063446
  H       3.720358     -6.915565      0.640423
  H       5.141993     -5.054634      0.400839
  H       4.582740     -3.913245     -0.857917
  H       4.420854     -3.494935      0.871646
44
Coordinates from ORCA-job pyrene_deriv_p1_reopt_freq E -1107.585084820957
  C      -1.785907      3.718093     -0.063070
  C      -0.528165      4.362075     -0.027604
  C       0.656518      3.651840      0.015711
  C       0.651147      2.240158      0.024970
  C       1.863257      1.483359      0.073693
  C       1.849937      0.116323      0.079887
  C       0.628181     -0.635858      0.035880
  C       0.605319     -2.072108      0.036480
  C      -0.661563     -2.703749      0.007839
  C      -1.846671     -1.991109     -0.026181
  C      -1.851785     -0.582034     -0.035982
  C      -3.062971      0.174209     -0.077149
  C      -3.057244      1.541285     -0.086908
  C      -1.829558      2.285301     -0.055102
  C      -0.596445      1.543362     -0.011912
  C      -0.602489      0.106961     -0.004256
  C      -3.011120      4.500111     -0.107624
  C       1.839212     -2.849294      0.054112
  C      -3.127857      5.843572     -0.098463
  C       1.920550     -4.209627      0.136507
  N       3.061167     -4.960981      0.209433
  C       3.004678     -6.390162     -0.029180
  C       4.359762     -4.324918      0.151842
  N      -4.438209      6.465842     -0.149381
  O      -4.447575      7.692517     -0.129237
  O      -5.440541      5.762584     -0.204405
  H      -0.486368      5.452984     -0.035958
  H       1.612837      4.180744      0.042656
  H       2.813408      2.023309      0.109027
  H       2.804111     -0.407957      0.125692
  H      -0.718832     -3.793794      0.003797
  H      -2.800956     -2.525098     -0.051194
  H      -4.013575     -0.366312     -0.101413
  H      -4.011026      2.066949     -0.118520
  H      -3.967325      3.976498     -0.154992
  H       2.773577     -2.294805     -0.006784
  H      -2.334817      6.586651     -0.052756
  H       1.010081     -4.814300      0.171140
  H       1.995472     -6.766930      0.192528
  H       3.244227     -6.657349     -1.078262
  H       3.716544     -6.919839      0.625437
  H       5.140067     -5.058171      0.400884
  H       4.583830     -3.906361     -0.849937
  H       4.418907     -3.501830      0.882595
44
Coordinates from ORCA-job pyrene_deriv_p1_reopt_freq E -1107.585063659268
  C      -1.779771      3.720585     -0.061325
  C      -0.521934      4.364533     -0.034398
  C       0.662275      3.653407      0.013409
  C       0.656298      2.241881      0.033745
  C       1.867134      1.483775      0.083417
  C       1.852094      0.116442      0.095920
  C       0.629778     -0.634352      0.059873
  C       0.605550     -2.070502      0.063045
  C      -0.661648     -2.701252      0.037974
  C      -1.845877     -1.987255      0.004686
  C      -1.849849     -0.578479     -0.008848
  C      -3.059690      0.178932     -0.051858
  C      -3.052040      1.546094     -0.068397
  C      -1.823822      2.288218     -0.041985
  C      -0.591729      1.545669      0.004134
  C      -0.599892      0.109560      0.019107
  C      -3.006868      4.497898     -0.110199
  C       1.838768     -2.847894      0.077377
  C      -3.131575      5.840687     -0.127652
  C       1.917234     -4.210255      0.126151
  N       3.055095     -4.965405      0.193657
  C       3.000956     -6.385685     -0.094228
  C       4.354885     -4.329501      0.175080
  N      -4.448171      6.450964     -0.180410
  O      -4.468444      7.677193     -0.213119
  O      -5.443898      5.737009     -0.208155
  H      -0.479972      5.455291     -0.051692
  H       1.619018      4.181935      0.034086
  H       2.818582      2.021975      0.111346
  H       2.806270     -0.408916      0.137500
  H      -0.719749     -3.791138      0.037070
  H      -2.800636     -2.520638     -0.017377
  H      -4.011325     -0.359991     -0.072963
  H      -4.005179      2.073357     -0.102225
  H      -3.961269      3.969507     -0.139372
  H       2.774014     -2.292596      0.037581
  H      -2.343637      6.590216     -0.107296
  H       1.005552     -4.813955      0.131053
  H       1.987305     -6.767796      0.095569
  H       3.259641     -6.617901     -1.147034
  H       3.699743     -6.938294      0.555400
  H       5.130998     -5.073246      0.405576
  H       4.590666     -3.873325     -0.807490
  H       4.406906     -3.534614      0.937110
44
Coordinates from ORCA-job pyrene_deriv_p1_reopt_freq E -1107.585096723687
  C      -1.782970      3.719365     -0.064028
  C      -0.525052      4.363044     -0.034872
  C       0.659246      3.652127      0.009707
  C       0.653446      2.240583      0.025776
  C       1.864829      1.483073      0.074337
  C       1.850556      0.115895      0.085316
  C       0.628505     -0.635637      0.047925
  C       0.604912     -2.071959      0.052557
  C      -0.662282     -2.703058      0.029103
  C      -1.846857     -1.989616     -0.004789
  C      -1.851398     -0.580740     -0.018925
  C      -3.061879      0.176063     -0.059949
  C      -3.055183      1.543187     -0.074989
  C      -1.827187      2.286441     -0.048915
  C      -0.594508      1.544073     -0.005158
  C      -0.601710      0.107813      0.008037
  C      -3.008584      4.499744     -0.108861
  C       1.838559     -2.849169      0.070409
  C      -3.128585      5.843000     -0.118038
  C       1.918320     -4.211106      0.126022
  N       3.057267     -4.964400      0.199749
  C       3.005191     -6.386946     -0.077001
  C       4.356291     -4.326931      0.177788
  N      -4.442237      6.459573     -0.167271
  O      -4.456580      7.686235     -0.178546
  O      -5.442052      5.751211     -0.194665
  H      -0.483124      5.453941     -0.048059
  H       1.615873      4.180736      0.032254
  H       2.815828      2.021906      0.104303
  H       2.804788     -0.408729      0.128249
  H      -0.720224     -3.792978      0.031292
  H      -2.801452     -2.523316     -0.024951
  H      -4.013133     -0.363528     -0.080059
  H      -4.008672      2.069358     -0.106692
  H      -3.964424      3.974482     -0.140144
  H       2.773511     -2.293734      0.030580
  H      -2.337580      6.589243     -0.092503
  H       1.007310     -4.815820      0.133795
  H       1.992016     -6.768894      0.115753
  H       3.264224     -6.626872     -1.128002
  H       3.704717     -6.933662      0.576883
  H       5.133198     -5.067354      0.415969
  H       4.593171     -3.879245     -0.808354
  H       4.405701     -3.525254      0.932807
44
Coordinates from ORCA-job pyrene_deriv_p1_reopt_freq E -1107.585109541379
  C      -1.783213      3.719088     -0.065647
  C      -0.525090      4.362472     -0.040033
  C       0.659124      3.651400      0.003150
  C       0.653114      2.239932      0.021726
  C       1.864477      1.482359      0.068797
  C       1.850065      0.115234      0.082856
  C       0.627863     -0.636339      0.050803
  C       0.604071     -2.072779      0.059808
  C      -0.663377     -2.703622      0.040304
  C      -1.847814     -1.990024      0.005530
  C      -1.852226     -0.581187     -0.012186
  C      -3.062690      0.175670     -0.052571
  C      -3.055905      1.542770     -0.070382
  C      -1.827802      2.286020     -0.047876
  C      -0.595061      1.543503     -0.005152
  C      -0.602383      0.107261      0.011219
  C      -3.008327      4.500250     -0.109062
  C       1.837681     -2.850093      0.079175
  C      -3.127274      5.843547     -0.125409
  C       1.917474     -4.212607      0.118539
  N       3.056098     -4.966089      0.195768
  C       3.008758     -6.384704     -0.101354
  C       4.354636     -4.327118      0.197274
  N      -4.440693      6.460999     -0.171852
  O      -4.453821      7.687531     -0.191128
  O      -5.441484      5.753614     -0.186306
  H      -0.483104      5.453362     -0.054588
  H       1.615883      4.179877      0.023047
  H       2.815717      2.020951      0.095088
  H       2.804439     -0.409131      0.123835
  H      -0.721750     -3.793480      0.048829
  H      -2.802523     -2.523653     -0.010747
  H      -4.014098     -0.363740     -0.069783
  H      -4.009451      2.068793     -0.101628
  H      -3.964881      3.975852     -0.131936
  H       2.772781     -2.294208      0.054827
  H      -2.335585      6.589344     -0.109300
  H       1.006828     -4.817830      0.107901
  H       1.993530     -6.769925      0.073254
  H       3.281097     -6.609698     -1.152284
  H       3.700493     -6.940022      0.553589
  H       5.129761     -5.070225      0.432757
  H       4.601505     -3.864623     -0.779518
  H       4.394943     -3.536588      0.964511
44
Coordinates from ORCA-job pyrene_deriv_p1_reopt_freq E -1107.585151580930
  C      -1.787291      3.715378     -0.077743
  C      -0.527367      4.355337     -0.076335
  C       0.655697      3.642460     -0.046165
  C       0.647586      2.231708     -0.012798
  C       1.858653      1.473365      0.022396
  C       1.843285      0.106965      0.057758
  C       0.620223     -0.644544      0.064129
  C       0.595141     -2.081697      0.106511
  C      -0.674356     -2.709932      0.115855
  C      -1.857735     -1.995150      0.073804
  C      -1.861278     -0.586785      0.029824
  C      -3.071685      0.170705     -0.004553
  C      -3.064466      1.537473     -0.041102
  C      -1.835615      2.280792     -0.043989
  C      -0.602375      1.536514     -0.011072
  C      -0.610369      0.100481      0.026968
  C      -3.006498      4.505987     -0.108033
  C       1.828913     -2.859713      0.137537
  C      -3.113910      5.848869     -0.173655
  C       1.915273     -4.220347      0.062322
  N       3.051041     -4.975259      0.169176
  C       3.047250     -6.358993     -0.265133
  C       4.337040     -4.332187      0.338659
  N      -4.422360      6.479171     -0.197229
  O      -4.421350      7.703522     -0.266865
  O      -5.431009      5.787754     -0.112825
  H      -0.484422      5.446211     -0.097524
  H       1.613517      4.169364     -0.044061
  H       2.811430      2.009755      0.023876
  H       2.798259     -0.415377      0.085977
  H      -0.736015     -3.798124      0.172535
  H      -2.813086     -2.527657      0.086854
  H      -4.024087     -0.367096     -0.000239
  H      -4.018544      2.061960     -0.067776
  H      -3.968636      3.992949     -0.067772
  H       2.760075     -2.305708      0.226205
  H      -2.315928      6.586398     -0.226493
  H       1.014136     -4.823260     -0.079780
  H       2.024377     -6.761003     -0.222785
  H       3.416293     -6.480121     -1.303515
  H       3.682532     -6.973530      0.394324
  H       5.101952     -5.090573      0.556923
  H       4.651891     -3.770081     -0.563228
  H       4.305608     -3.623836      1.182879
44
Coordinates from ORCA-job pyrene_deriv_p1_reopt_freq E -1107.580975205155
  C      -1.728505      3.730517     -0.072662
  C      -0.470707      4.378801     -0.093859
  C       0.714295      3.664112     -0.051524
  C       0.699829      2.250650      0.010737
  C       1.902518      1.479647      0.042898
  C       1.872074      0.111095      0.094454
  C       0.642266     -0.624485      0.125452
  C       0.596968     -2.055548      0.170285
  C      -0.677564     -2.668543      0.192402
  C      -1.851635     -1.942950      0.153644
  C      -1.834143     -0.536159      0.100271
  C      -3.032975      0.235317      0.058308
  C      -3.004863      1.601528      0.005508
  C      -1.767875      2.315902     -0.010118
  C      -0.548612      1.566347      0.033186
  C      -0.574842      0.132299      0.089907
  C      -2.986973      4.457557     -0.118509
  C       1.811562     -2.846246      0.196244
  C      -3.175807      5.789570     -0.205916
  C       1.889719     -4.203065      0.046419
  N       3.010046     -4.976778      0.127197
  C       2.993529     -6.320908     -0.416190
  C       4.300906     -4.382092      0.389163
  N      -4.520506      6.324256     -0.232785
  O      -4.619897      7.535849     -0.423218
  O      -5.455795      5.536723     -0.276319
  H      -0.424068      5.466817     -0.142585
  H       1.673981      4.187396     -0.071195
  H       2.858160      2.010988      0.013518
  H       2.826128     -0.426186      0.098071
  H      -0.752475     -3.753946      0.257538
  H      -2.814394     -2.462334      0.169658
  H      -3.990845     -0.293628      0.065344
  H      -3.948108      2.154464     -0.029645
  H      -3.914731      3.880542     -0.087357
  H       2.751206     -2.306919      0.320364
  H      -2.427684      6.575214     -0.259844
  H       0.995352     -4.788008     -0.175287
  H       1.964374     -6.707433     -0.432097
  H       3.391575     -6.372437     -1.449663
  H       3.599000     -6.994085      0.211113
  H       5.038318     -5.177436      0.576335
  H       4.665538     -3.764694     -0.458789
  H       4.257445     -3.739569      1.283390
44
Coordinates from ORCA-job pyrene_deriv_p1_reopt_freq E -1107.585351668441
  C      -1.781220      3.716133     -0.077765
  C      -0.521778      4.357989     -0.089615
  C       0.662347      3.645942     -0.063778
  C       0.654521      2.234843     -0.021371
  C       1.865614      1.475782      0.005880
  C       1.849551      0.109243      0.050376
  C       0.625990     -0.640064      0.076150
  C       0.599541     -2.075334      0.129408
  C      -0.668846     -2.703773      0.148143
  C      -1.852587     -1.989498      0.105436
  C      -1.854888     -0.581431      0.053899
  C      -3.064840      0.176605      0.021434
  C      -3.056438      1.543129     -0.021740
  C      -1.827063      2.284257     -0.034873
  C      -0.594778      1.540455     -0.005034
  C      -0.603544      0.104852      0.041863
  C      -3.006257      4.498874     -0.105596
  C       1.829389     -2.855242      0.165426
  C      -3.123787      5.839529     -0.192343
  C       1.912444     -4.212508      0.041519
  N       3.039799     -4.978534      0.155021
  C       3.041950     -6.341935     -0.339322
  C       4.323302     -4.354524      0.396087
  N      -4.436527      6.459776     -0.207776
  O      -4.448746      7.682158     -0.315296
  O      -5.438069      5.759186     -0.116341
  H      -0.479042      5.448488     -0.116967
  H       1.620033      4.173008     -0.072804
  H       2.818221      2.012367     -0.009340
  H       2.804980     -0.415221      0.065595
  H      -0.728932     -3.791642      0.218738
  H      -2.808262     -2.521238      0.126293
  H      -4.017248     -0.361191      0.032208
  H      -4.009798      2.069959     -0.047626
  H      -3.963806      3.978918     -0.046961
  H       2.760426     -2.307647      0.299813
  H      -2.331865      6.581216     -0.268952
  H       1.013894     -4.803731     -0.157890
  H       2.015646     -6.737108     -0.349753
  H       3.446336     -6.421784     -1.368554
  H       3.649608     -6.989250      0.314505
  H       5.074955     -5.128560      0.606509
  H       4.673496     -3.756991     -0.469636
  H       4.268063     -3.683363      1.268871
44
Coordinates from ORCA-job pyrene_deriv_p1_reopt_freq E -1107.585437034738
  C      -1.779979      3.715044     -0.080288
  C      -0.520459      4.356457     -0.103381
  C       0.663567      3.643995     -0.082404
  C       0.655393      2.233039     -0.032973
  C       1.866289      1.473244     -0.012287
  C       1.849579      0.106935      0.040536
  C       0.625533     -0.640589      0.083384
  C       0.598797     -2.074952      0.148716
  C      -0.669329     -2.703390      0.177467
  C      -1.853378     -1.989092      0.133260
  C      -1.855307     -0.581362      0.073486
  C      -3.065093      0.177373      0.043997
  C      -3.055993      1.543654     -0.005985
  C      -1.826168      2.283801     -0.029725
  C      -0.594234      1.539594     -0.003909
  C      -0.603686      0.104423      0.051340
  C      -3.005165      4.497543     -0.103661
  C       1.828275     -2.855332      0.190811
  C      -3.123635      5.836357     -0.213506
  C       1.913239     -4.207307      0.019814
  N       3.034723     -4.980519      0.142626
  C       3.052661     -6.322649     -0.406771
  C       4.309755     -4.369640      0.452361
  N      -4.436165      6.456696     -0.219921
  O      -4.449810      7.676220     -0.354781
  O      -5.435692      5.758985     -0.092724
  H      -0.477577      5.446905     -0.134500
  H       1.621397      4.170565     -0.100119
  H       2.819077      2.008969     -0.040553
  H       2.804298     -0.419078      0.046580
  H      -0.728096     -3.790178      0.263742
  H      -2.809138     -2.520198      0.163859
  H      -4.017759     -0.359733      0.062738
  H      -4.009102      2.071209     -0.029758
  H      -3.961829      3.979060     -0.019854
  H       2.755169     -2.313565      0.371632
  H      -2.332965      6.575835     -0.319357
  H       1.020688     -4.787049     -0.233353
  H       2.026701     -6.713665     -0.470677
  H       3.493964     -6.361723     -1.423110
  H       3.635021     -6.998090      0.241641
  H       5.053537     -5.153219      0.655204
  H       4.689160     -3.737417     -0.375616
  H       4.225520     -3.735017      1.349860
44
Coordinates from ORCA-job pyrene_deriv_p1_reopt_freq E -1107.585590955301
  C      -1.780125      3.709434     -0.087754
  C      -0.520509      4.348820     -0.142201
  C       0.663112      3.635451     -0.128574
  C       0.654467      2.225367     -0.055020
  C       1.865273      1.464033     -0.051033
  C       1.847813      0.098834      0.025850
  C       0.622886     -0.642804      0.115705
  C       0.597009     -2.073980      0.210968
  C      -0.668916     -2.704386      0.263259
  C      -1.855115     -1.991326      0.214792
  C      -1.857323     -0.584660      0.134163
  C      -3.067453      0.175117      0.107617
  C      -3.057789      1.540367      0.037998
  C      -1.827232      2.279602     -0.011895
  C      -0.595744      1.534849      0.008610
  C      -0.605951      0.101130      0.088238
  C      -3.004257      4.494321     -0.106992
  C       1.826629     -2.855288      0.267230
  C      -3.120162      5.827625     -0.270877
  C       1.920076     -4.184393     -0.029503
  N       3.024718     -4.980462      0.103118
  C       3.085918     -6.254620     -0.587239
  C       4.269992     -4.421385      0.583828
  N      -4.428303      6.456168     -0.261031
  O      -4.438403      7.668527     -0.447758
  O      -5.427237      5.771360     -0.073982
  H      -0.476831      5.438813     -0.189506
  H       1.620988      4.160376     -0.172005
  H       2.817076      1.997918     -0.118958
  H       2.798744     -0.433731      0.003619
  H      -0.720424     -3.788408      0.384339
  H      -2.810546     -2.521428      0.265400
  H      -4.019955     -0.361321      0.143787
  H      -4.010441      2.068544      0.015782
  H      -3.959309      3.982917      0.025098
  H       2.737337     -2.335244      0.563563
  H      -2.329142      6.556083     -0.435476
  H       1.048265     -4.719610     -0.418473
  H       2.067963     -6.624083     -0.779317
  H       3.611259     -6.187868     -1.561328
  H       3.609802     -7.003796      0.029425
  H       4.991023     -5.230875      0.766085
  H       4.722746     -3.711628     -0.137728
  H       4.109857     -3.882219      1.532020
44
Coordinates from ORCA-job pyrene_deriv_p1_reopt_freq E -1107.585623553345
  C      -1.781847      3.707537     -0.095535
  C      -0.522370      4.346807     -0.154020
  C       0.661463      3.633857     -0.138560
  C       0.653560      2.224156     -0.059594
  C       1.864999      1.463446     -0.054707
  C       1.848138      0.098585      0.026861
  C       0.622827     -0.642090      0.120487
  C       0.598414     -2.072364      0.220654
  C      -0.665925     -2.704990      0.275528
  C      -1.853482     -1.993083      0.226272
  C      -1.856941     -0.586767      0.141910
  C      -3.067721      0.172583      0.113884
  C      -3.058802      1.537495      0.039856
  C      -1.828592      2.277759     -0.014624
  C      -0.596701      1.533734      0.007622
  C      -0.606376      0.100421      0.092327
  C      -3.005767      4.493152     -0.114674
  C       1.829819     -2.852738      0.279725
  C      -3.119332      5.827448     -0.271828
  C       1.922061     -4.178609     -0.030454
  N       3.023818     -4.979450      0.098826
  C       3.086621     -6.244454     -0.607724
  C       4.266307     -4.430336      0.597399
  N      -4.426229      6.458863     -0.259325
  O      -4.432422      7.674133     -0.425584
  O      -5.427986      5.773242     -0.091101
  H      -0.478782      5.436559     -0.205889
  H       1.619089      4.158955     -0.185452
  H       2.816129      1.997924     -0.127349
  H       2.797661     -0.436601      0.003838
  H      -0.713382     -3.789261      0.396803
  H      -2.808474     -2.523901      0.277669
  H      -4.019803     -0.364418      0.152604
  H      -4.011732      2.065181      0.017853
  H      -3.961536      3.981269      0.009971
  H       2.738070     -2.333837      0.586674
  H      -2.325923      6.555526     -0.426090
  H       1.049884     -4.705398     -0.430423
  H       2.069111     -6.610701     -0.808285
  H       3.615825     -6.165721     -1.578855
  H       3.607679     -7.001954      0.001171
  H       4.980189     -5.245066      0.784864
  H       4.732759     -3.720018     -0.114919
  H       4.097484     -3.894732      1.546037
44
Coordinates from ORCA-job pyrene_deriv_p1_reopt_freq E -1107.585646967028
  C      -1.782401      3.707254     -0.104406
  C      -0.523092      4.346765     -0.164502
  C       0.661072      3.634407     -0.146389
  C       0.654327      2.225099     -0.063333
  C       1.866393      1.465469     -0.054787
  C       1.850439      0.100872      0.029994
  C       0.624836     -0.639866      0.123442
  C       0.601519     -2.069953      0.226352
  C      -0.661528     -2.704151      0.283650
  C      -1.849831     -1.993015      0.233952
  C      -1.854438     -0.587329      0.145987
  C      -3.065648      0.171578      0.117186
  C      -3.057541      1.536115      0.039007
  C      -1.828098      2.277510     -0.019254
  C      -0.595760      1.534391      0.004860
  C      -0.604806      0.101352      0.093433
  C      -3.007214      4.491780     -0.126039
  C       1.834867     -2.849757      0.285203
  C      -3.121403      5.828078     -0.265234
  C       1.923469     -4.174772     -0.029075
  N       3.021970     -4.980551      0.096915
  C       3.081689     -6.240640     -0.617949
  C       4.264835     -4.438975      0.602088
  N      -4.429875      6.457424     -0.256610
  O      -4.436090      7.677052     -0.388082
  O      -5.433076      5.765804     -0.124908
  H      -0.479776      5.436092     -0.222042
  H       1.618341      4.160067     -0.195087
  H       2.816993      2.001047     -0.126718
  H       2.798797     -0.436568      0.011607
  H      -0.705615     -3.788512      0.405310
  H      -2.804452     -2.524298      0.287824
  H      -4.017433     -0.365767      0.158954
  H      -4.010826      2.063268      0.017978
  H      -3.963245      3.976492     -0.020298
  H       2.741850     -2.330062      0.594147
  H      -2.327000      6.559788     -0.394358
  H       1.047551     -4.695920     -0.428405
  H       2.063346     -6.605481     -0.817135
  H       3.607604     -6.156054     -1.590423
  H       3.604815     -7.002012     -0.015751
  H       4.969692     -5.258782      0.802251
  H       4.744490     -3.737790     -0.110730
  H       4.092040     -3.895310      1.545217
44
Coordinates from ORCA-job pyrene_deriv_p1_reopt_freq E -1107.585655389817
  C      -1.781728      3.707108     -0.109937
  C      -0.522389      4.346320     -0.172729
  C       0.661706      3.633895     -0.153708
  C       0.655163      2.224848     -0.066775
  C       1.867181      1.465323     -0.057127
  C       1.851332      0.100986      0.030980
  C       0.625626     -0.639477      0.127361
  C       0.602206     -2.069468      0.233595
  C      -0.660615     -2.703462      0.294887
  C      -1.848840     -1.992241      0.244730
  C      -1.853477     -0.587071      0.152665
  C      -3.064571      0.172017      0.123894
  C      -3.056406      1.536266      0.041956
  C      -1.827214      2.277584     -0.020706
  C      -0.594906      1.534492      0.004287
  C      -0.604007      0.101691      0.096776
  C      -3.006888      4.490889     -0.134045
  C       1.836025     -2.849354      0.291822
  C      -3.122208      5.828119     -0.262863
  C       1.924210     -4.172195     -0.031423
  N       3.020072     -4.981595      0.094048
  C       3.082913     -6.232704     -0.635849
  C       4.260586     -4.447434      0.612474
  N      -4.432171      6.454736     -0.259584
  O      -4.439910      7.676076     -0.374358
  O      -5.435104      5.759260     -0.147562
  H      -0.478982      5.435373     -0.235195
  H       1.618874      4.159510     -0.205133
  H       2.817671      2.000942     -0.130388
  H       2.798998     -0.437717      0.013984
  H      -0.703803     -3.787262      0.421583
  H      -2.803435     -2.523168      0.302800
  H      -4.016456     -0.364890      0.169127
  H      -4.009715      2.063398      0.021772
  H      -3.963009      3.973675     -0.039762
  H       2.741183     -2.330815      0.607794
  H      -2.328037      6.562569     -0.377014
  H       1.048639     -4.687827     -0.438676
  H       2.065475     -6.596137     -0.842326
  H       3.611529     -6.136059     -1.605779
  H       3.605186     -7.000604     -0.041312
  H       4.958760     -5.271416      0.819429
  H       4.751880     -3.747927     -0.094150
  H       4.080440     -3.904114      1.554279
44
Coordinates from ORCA-job pyrene_deriv_p1_reopt_freq E -1107.585664606647
  C      -1.781214      3.707601     -0.115641
  C      -0.521879      4.346858     -0.177958
  C       0.662228      3.634671     -0.156284
  C       0.655913      2.225737     -0.067060
  C       1.867962      1.466590     -0.054782
  C       1.852432      0.102408      0.034354
  C       0.626971     -0.638853      0.129428
  C       0.603282     -2.069213      0.235572
  C      -0.659773     -2.702515      0.298940
  C      -1.847669     -1.991125      0.248932
  C      -1.852310     -0.586284      0.154544
  C      -3.063355      0.172655      0.124811
  C      -3.055317      1.536751      0.040747
  C      -1.826446      2.278160     -0.023818
  C      -0.594006      1.535220      0.003522
  C      -0.602823      0.102459      0.097879
  C      -3.006523      4.490416     -0.145374
  C       1.837150     -2.849258      0.290274
  C      -3.123093      5.829688     -0.249260
  C       1.923321     -4.173665     -0.026843
  N       3.018725     -4.984013      0.097331
  C       3.079654     -6.233015     -0.636219
  C       4.262051     -4.449735      0.608797
  N      -4.435058      6.451976     -0.259850
  O      -4.444723      7.675735     -0.344625
  O      -5.437650      5.750885     -0.186744
  H      -0.478580      5.435669     -0.245646
  H       1.619237      4.160495     -0.208564
  H       2.818466      2.002461     -0.126013
  H       2.800151     -0.436198      0.020689
  H      -0.703418     -3.786058      0.427433
  H      -2.802247     -2.521912      0.308868
  H      -4.015379     -0.363886      0.171528
  H      -4.008815      2.063486      0.020973
  H      -3.963300      3.970174     -0.078745
  H       2.743460     -2.328447      0.598762
  H      -2.329307      6.569045     -0.329974
  H       1.045187     -4.690255     -0.427334
  H       2.061809     -6.600387     -0.833828
  H       3.598569     -6.132095     -1.611016
  H       3.611016     -6.999716     -0.048336
  H       4.954851     -5.274901      0.829286
  H       4.758803     -3.763542     -0.107089
  H       4.083435     -3.891930      1.542180
44
Coordinates from ORCA-job pyrene_deriv_p1_reopt_freq E -1107.585670143830
  C      -1.780860      3.707046     -0.120373
  C      -0.521373      4.345874     -0.184519
  C       0.662505      3.633389     -0.163215
  C       0.655660      2.224506     -0.072353
  C       1.867386      1.464906     -0.060866
  C       1.851487      0.100853      0.030113
  C       0.626211     -0.640122      0.128455
  C       0.601999     -2.070286      0.237569
  C      -0.661467     -2.702622      0.303677
  C      -1.849073     -1.990928      0.253193
  C      -1.853253     -0.586174      0.156105
  C      -3.064053      0.173053      0.126718
  C      -3.055645      1.537089      0.040781
  C      -1.826581      2.277778     -0.026821
  C      -0.594346      1.534383      0.000324
  C      -0.603391      0.101754      0.096916
  C      -3.005642      4.490324     -0.150406
  C       1.835137     -2.850586      0.292735
  C      -3.121845      5.830720     -0.239529
  C       1.922918     -4.174324     -0.026499
  N       3.017886     -4.985043      0.100983
  C       3.084491     -6.227875     -0.642750
  C       4.259401     -4.451982      0.618232
  N      -4.433963      6.452421     -0.255278
  O      -4.443381      7.676927     -0.328404
  O      -5.436816      5.750375     -0.196862
  H      -0.477940      5.434519     -0.254881
  H       1.619602      4.158819     -0.217628
  H       2.818098      2.000114     -0.134154
  H       2.799443     -0.437346      0.015230
  H      -0.706148     -3.785660      0.436292
  H      -2.803728     -2.521283      0.315569
  H      -4.016303     -0.362871      0.175663
  H      -4.009094      2.063997      0.022306
  H      -3.963099      3.969714     -0.096913
  H       2.740877     -2.330417      0.604096
  H      -2.328071      6.571676     -0.304063
  H       1.046922     -4.690469     -0.432340
  H       2.068318     -6.597778     -0.844354
  H       3.603907     -6.116998     -1.616236
  H       3.618505     -6.996863     -0.060388
  H       4.948987     -5.278123      0.845279
  H       4.762116     -3.768875     -0.096496
  H       4.076002     -3.891473      1.548936
44
Coordinates from ORCA-job pyrene_deriv_p1_reopt_freq E -1107.585673272608
  C      -1.781083      3.706648     -0.121792
  C      -0.521506      4.345318     -0.186109
  C       0.662263      3.632670     -0.165058
  C       0.654965      2.223746     -0.074465
  C       1.866509      1.463783     -0.063742
  C       1.850274      0.099656      0.026998
  C       0.625119     -0.641148      0.125724
  C       0.600711     -2.071183      0.234951
  C      -0.663041     -2.703194      0.300319
  C      -1.850575     -1.991385      0.249775
  C      -1.854481     -0.586386      0.153219
  C      -3.065185      0.172904      0.123878
  C      -3.056584      1.537059      0.038547
  C      -1.827253      2.277346     -0.028900
  C      -0.595128      1.533690     -0.001849
  C      -0.604336      0.101053      0.094384
  C      -3.005342      4.490679     -0.151411
  C       1.833253     -2.851575      0.290917
  C      -3.120286      5.831876     -0.229974
  C       1.921954     -4.176510     -0.022913
  N       3.018246     -4.985431      0.106973
  C       3.086585     -6.228831     -0.636068
  C       4.260610     -4.448443      0.618260
  N      -4.431825      6.454584     -0.249019
  O      -4.439788      7.679396     -0.316798
  O      -5.435542      5.753205     -0.198209
  H      -0.478074      5.433921     -0.257120
  H       1.619482      4.157785     -0.220081
  H       2.817449      1.998449     -0.137842
  H       2.798795     -0.437545      0.010779
  H      -0.708768     -3.786341      0.431813
  H      -2.805279     -2.521747      0.311049
  H      -4.017518     -0.362897      0.172317
  H      -4.009971      2.064071      0.020610
  H      -3.963512      3.970453     -0.107030
  H       2.740026     -2.330840      0.598499
  H      -2.325964      6.573093     -0.283945
  H       1.046603     -4.696175     -0.425682
  H       2.071026     -6.602722     -0.833415
  H       3.601866     -6.116794     -1.611628
  H       3.625721     -6.995108     -0.054930
  H       4.951168     -5.272879      0.848493
  H       4.761256     -3.769382     -0.101780
  H       4.078945     -3.882728      1.546099
44
Coordinates from ORCA-job pyrene_deriv_p1_reopt_freq E -1107.585674009506
  C      -1.781185      3.706351     -0.122116
  C      -0.521579      4.344912     -0.186991
  C       0.662149      3.632140     -0.166344
  C       0.654697      2.223239     -0.075691
  C       1.866173      1.463070     -0.065476
  C       1.849747      0.098903      0.025498
  C       0.624489     -0.641518      0.124843
  C       0.600098     -2.071389      0.234519
  C      -0.663592     -2.703559      0.299384
  C      -1.851199     -1.991745      0.248701
  C      -1.855034     -0.586655      0.152447
  C      -3.065702      0.172725      0.123268
  C      -3.056996      1.536910      0.038146
  C      -1.827525      2.277040     -0.029400
  C      -0.595476      1.533293     -0.002714
  C      -0.604864      0.100695      0.093531
  C      -3.005357      4.490721     -0.150715
  C       1.832563     -2.851811      0.291638
  C      -3.119573      5.832043     -0.228233
  C       1.921736     -4.176685     -0.022240
  N       3.018285     -4.985275      0.108690
  C       3.087895     -6.228088     -0.635387
  C       4.260329     -4.447576      0.620037
  N      -4.430719      6.455656     -0.246690
  O      -4.437889      7.680393     -0.315858
  O      -5.434878      5.755028     -0.194180
  H      -0.478125      5.433491     -0.258055
  H       1.619451      4.157050     -0.221841
  H       2.817195      1.997467     -0.140427
  H       2.798380     -0.438103      0.008503
  H      -0.709345     -3.786791      0.430227
  H      -2.805921     -2.522116      0.309487
  H      -4.018022     -0.363106      0.171589
  H      -4.010294      2.064087      0.020445
  H      -3.963721      3.970861     -0.106225
  H       2.739414     -2.331605      0.600012
  H      -2.324841      6.572803     -0.282216
  H       1.047012     -4.696955     -0.425614
  H       2.072714     -6.602852     -0.833014
  H       3.603124     -6.114678     -1.610813
  H       3.627750     -6.994232     -0.054769
  H       4.951691     -5.271636      0.849137
  H       4.760043     -3.767519     -0.099733
  H       4.078687     -3.882848      1.548483
