! B3LYP def2-SVP Opt PAL8 FREQ defgrid3 slowconv VeryTightSCF
*xyz 0 1
  C      -1.787433      3.717463     -0.063191
  C      -0.529691      4.361386     -0.025939
  C       0.655084      3.651330      0.016014
  C       0.649835      2.239631      0.022619
  C       1.862240      1.483132      0.070896
  C       1.849320      0.116175      0.075661
  C       0.627694     -0.636333      0.030067
  C       0.605150     -2.072624      0.030315
  C      -0.661685     -2.704458      0.001341
  C      -1.846991     -1.992121     -0.032743
  C      -1.852374     -0.582980     -0.041878
  C      -3.063884      0.172983     -0.082290
  C      -3.058619      1.540034     -0.090558
  C      -1.831050      2.284528     -0.057904
  C      -0.597677      1.542711     -0.015702
  C      -0.603225      0.106242     -0.009686
  C      -3.012094      4.500751     -0.106288
  C       1.839217     -2.849758      0.048881
  C      -3.126773      5.844306     -0.091090
  C       1.921282     -4.209556      0.138200
  N       3.062550     -4.959961      0.212785
  C       3.005978     -6.390811     -0.015448
  C       4.360763     -4.323826      0.147598
  N      -4.435596      6.469575     -0.140948
  O      -4.442056      7.696132     -0.113648
  O      -5.439379      5.769181     -0.205860
  H      -0.487919      5.452329     -0.032074
  H       1.611317      4.180291      0.044305
  H       2.812103      2.023459      0.107814
  H       2.803491     -0.407832      0.122319
  H      -0.718795     -3.794535     -0.002900
  H      -2.801177     -2.526251     -0.057963
  H      -4.014259     -0.367903     -0.106924
  H      -4.012560      2.065267     -0.121360
  H      -3.968808      3.978491     -0.157143
  H       2.773364     -2.295459     -0.015889
  H      -2.332424      6.585680     -0.040213
  H       1.011163     -4.814418      0.178666
  H       1.997716     -6.766436      0.212456
  H       3.242043     -6.665295     -1.063446
  H       3.720358     -6.915565      0.640423
  H       5.141993     -5.054634      0.400839
  H       4.582740     -3.913245     -0.857917
  H       4.420854     -3.494935      0.871646
*
