39
Energy =
C    -7.2178617    3.4785225   -0.2251295 
C    -5.9535238    4.1053533   -0.1864432 
C    -4.7766299    3.3793136   -0.1265660 
C    -4.7987488    1.9701814   -0.1003756 
C    -3.5957752    1.1972327   -0.0215706 
C    -3.6266946   -0.1680141    0.0050419 
C    -4.8633609   -0.8978900   -0.0539645 
C    -4.9089727   -2.3268450   -0.0364444 
C    -6.1725632   -2.9540291   -0.0841668 
C    -7.3539074   -2.2285414   -0.1312422 
C    -7.3398354   -0.8214379   -0.1532810 
C    -8.5421070   -0.0479524   -0.2273264 
C    -8.5155790    1.3171924   -0.2562124 
C    -7.2781656    2.0488557   -0.2031257 
C    -6.0566511    1.2920318   -0.1404834 
C    -6.0834420   -0.1430576   -0.1172845 
C    -8.4366328    4.2828957   -0.2705506 
C    -3.6815666   -3.1251166    0.0154528 
C    -8.5257444    5.6052302   -0.5635042 
C    -3.5926886   -4.3831957    0.4937206 
C    -9.7650490    6.3097800   -0.5535179 
O    -2.4364959   -5.0752921    0.4508504 
C    -2.4056018   -6.3097500    1.1407223 
N   -10.7670233    6.9013041   -0.5544524 
H    -5.8984053    5.1957098   -0.1757197 
H    -3.8150903    3.8979036   -0.0855356 
H    -2.6396470    1.7259003    0.0230167 
H    -2.6868966   -0.7151786    0.0813762 
H    -6.2226567   -4.0444956   -0.1198758 
H    -8.3132095   -2.7518625   -0.1755481 
H    -9.4990731   -0.5760344   -0.2661735 
H    -9.4608340    1.8546956   -0.3290056 
H    -9.3759803    3.7759168   -0.0405437 
H    -2.7512643   -2.6887619   -0.3556295 
H    -7.6471481    6.1971686   -0.8364389 
H    -4.4475307   -4.9055818    0.9434365 
H    -1.4219027   -6.7603160    0.9517491 
H    -2.5312519   -6.1699030    2.2299148 
H    -3.1892858   -6.9987694    0.7754163 
