! B3LYP def2-SVP Opt PAL8 FREQ 
#defgrid3 slowconv VeryTightSCF
*xyz 0 1
  C   -7.117698    3.174210   -0.265269
  C   -5.907082    3.766015   -0.239255
  C   -4.771567    3.065390   -0.158900
  C   -4.813823    1.728256   -0.101786
  C   -3.666934    1.040811   -0.022369
  C   -3.683753   -0.295329    0.034640
  C   -4.832470   -1.000677    0.015485
  C   -4.853659   -2.361261    0.071961
  C   -6.061339   -2.958151    0.047900
  C   -7.197568   -2.258131   -0.028531
  C   -7.156107   -0.920598   -0.084841
  C   -8.302702   -0.232908   -0.162631
  C   -8.285798    1.103269   -0.221093
  C   -7.138854    1.812574   -0.204738
  C   -5.994516    1.083437   -0.123814
  C   -5.977125   -0.272677   -0.063818
  C   -8.227386    3.950251   -0.349214
  C   -3.745562   -3.137174    0.147940
  C   -8.332449    5.294189   -0.415680
  C   -3.644524   -4.478967    0.207583
  O   -2.419775   -5.085551    0.297884
  C   -2.385021   -6.231339    1.119099
  N   -9.420823    5.916420   -0.492251
  O   -9.430902    7.229740   -0.552460
  O  -10.602112    5.343188   -0.518215
  H   -5.762356    4.855328   -0.281762
  H   -3.810226    3.608219   -0.141589
  H   -2.693041    1.561159   -0.002990
  H   -2.683878   -0.746904    0.097573
  H   -6.196763   -4.049150    0.087768
  H   -8.158280   -2.801960   -0.045153
  H   -9.276410   -0.753784   -0.180283
  H   -9.288308    1.548953   -0.282568
  H   -9.209081    3.459558   -0.369912
  H   -2.747358   -2.676574    0.164404
  H   -7.428738    5.922115   -0.405254
  H   -4.511966   -5.154728    0.221307
  H   -1.334727   -6.597603    1.158423
  H   -2.718456   -5.970102    2.148635
  H   -3.028467   -7.031944    0.690118
*