87
Energy =
C    -1.1244880    4.8609267   -2.4888419 
C     0.7306305    3.0980993   -5.1881492 
C     0.3320295    4.3821732   -2.5944232 
C     0.4383423    2.2456466   -3.9516062 
C     0.4336955    2.1727022   -1.5042701 
C     0.3796516    0.7518452   -1.5440370 
C     0.4258246    2.7656349   -0.2071550 
C     0.3528818   -0.0017368   -0.3783880 
C     0.3978747    1.9984057    0.9440423 
C     0.3640769    0.5838595    0.9062370 
C     0.3322044   -0.2594478    2.0847611 
C     0.3233528    0.1420893    3.3909385 
C     0.2744277   -0.7136345    4.5473582 
C     0.2242127   -0.1469946    5.8047047 
C     0.2438099   -2.2197392    4.4098468 
C     0.3737944   -4.4689961    5.5290090 
C     0.1292575   -0.8916697    7.0200577 
C     0.7306879   -2.9797855    5.6661337 
C     0.1019966   -0.2152923    8.2316788 
C     0.0136574   -2.3952949    6.9060930 
C     2.2588000   -2.8420356    5.8175306 
C    -0.0088272   -0.7940661    9.5180074 
C    -0.0461354   -0.0442913   10.6790050 
C    -0.1550459   -0.5223565   12.0052557 
C    -0.1831257   -1.9792866   12.4803486 
C    -0.2606999    0.2717341   13.1458617 
C    -0.3884687   -0.5805107   14.3021972 
C    -0.5241044   -0.2957137   15.6470801 
C    -1.2360841    6.3845150   -2.4181697 
C     0.7364735    2.2444676   -6.4590699 
N     0.4973961    2.9328894   -2.6567490 
C     1.2307494   -2.6229409   12.3639534 
C    -0.2568651    1.6921799   13.1169437 
C    -1.3211586   -2.8175583   11.8925929 
O    -0.3872226   -1.8701453   13.9071469 
C    -0.5472152    1.0406637   16.1511095 
C    -0.6503815   -1.3628209   16.5914100 
F     1.5707420   -2.8491312   11.0814584 
F     2.1513543   -1.8110459   12.8908911 
F     1.2906182   -3.7876039   13.0131420 
N    -0.2501665    2.8487620   13.0000250 
C    -1.1537091   -4.1040850   11.3588217 
C    -2.2574028   -4.8163728   10.8762847 
C    -3.5371963   -4.2617670   10.9290443 
C    -3.7127129   -2.9829703   11.4681025 
C    -2.6135985   -2.2680388   11.9429006 
N    -0.5717533    2.1106838   16.6048388 
N    -0.7575575   -2.2155383   17.3740302 
H    -1.6903231    4.4819212   -3.3583969 
H    -1.5926402    4.4054286   -1.5996332 
H    -0.0201956    3.8985844   -5.2959546 
H     1.7095985    3.5949312   -5.0747144 
H     0.9168413    4.7738854   -1.7477071 
H     0.7970034    4.8263770   -3.4843742 
H     1.1781604    1.4273026   -3.9354180 
H    -0.5501584    1.7576544   -4.0816678 
H     0.3534407    0.2238700   -2.4949849 
H     0.4437784    3.8484928   -0.0958250 
H     0.3147986   -1.0922689   -0.4629493 
H     0.3996685    2.5172223    1.9054917 
H     0.3077980   -1.3336943    1.8737333 
H     0.3369481    1.2146662    3.6102045 
H     0.2535776    0.9445680    5.8861873 
H    -0.7951052   -2.5248665    4.1797211 
H     0.8452858   -2.5354670    3.5419563 
H     0.7120655   -5.0395105    6.4096029 
H     0.8551693   -4.9104536    4.6407941 
H    -0.7145951   -4.6161753    5.4300107 
H     0.1654198    0.8782353    8.1905599 
H    -1.0622895   -2.6481858    6.8430785 
H     0.3901949   -2.8900906    7.8143503 
H     2.5738728   -1.7913754    5.9078170 
H     2.6119750   -3.3764017    6.7148815 
H     2.7772189   -3.2749717    4.9462642 
H    -0.0745038   -1.8807019    9.5923081 
H    -0.0044149    1.0459941   10.5833754 
H    -2.2867476    6.7066050   -2.3482386 
H    -0.7073501    6.7876240   -1.5375625 
H    -0.8004986    6.8645327   -3.3111973 
H     0.9331726    2.8624272   -7.3487086 
H     1.5133415    1.4627114   -6.4178758 
H    -0.2329669    1.7412056   -6.6112439 
H    -0.1716329   -4.5726109   11.3166538 
H    -2.1095223   -5.8185413   10.4657513 
H    -4.3967691   -4.8246683   10.5561224 
H    -4.7099421   -2.5389311   11.5204488 
H    -2.7649076   -1.2700322   12.3611758 
